<?xml version="1.0" encoding="UTF-8"?>

<!-- generated on Sun Jul  9 17:08:52 2017 by SUMO polyconvert Version 0.30.0
<?xml version="1.0" encoding="UTF-8"?>

<configuration xmlns:xsi="http://www.w3.org/2001/XMLSchema-instance" xsi:noNamespaceSchemaLocation="http://sumo.dlr.de/xsd/polyconvertConfiguration.xsd">

    <input>
        <net-file value="/home/theinecke/Downloads/bozeman.net.xml"/>
        <osm-files value="/home/theinecke/Downloads/map.osm"/>
        <type-file value="typemap.xml"/>
    </input>

    <output>
        <output-file value="bozeman.poly.xml"/>
    </output>

    <processing>
        <poi-layer-offset value="5"/>
    </processing>

</configuration>
-->

<additional xmlns:xsi="http://www.w3.org/2001/XMLSchema-instance" xsi:noNamespaceSchemaLocation="http://sumo.dlr.de/xsd/additional_file.xsd">
    <location netOffset="-494741.52,-5055956.25" convBoundary="-0.00,-0.00,3576.22,4662.26" origBoundary="-111.067516,45.657152,-111.020795,45.699115" projParameter="+proj=utm +zone=12 +ellps=WGS84 +datum=WGS84 +units=m +no_defs"/>

    <poly id="102378511" type="building" color="255,230,230" fill="1" layer="-1.00" shape="2128.04,2479.58 2128.31,2510.78 2087.40,2511.07 2087.50,2483.53 2096.26,2483.68 2096.31,2479.65 2128.04,2479.58"/>
    <poly id="146918112" type="tourism" color="207,245,201" fill="1" layer="-2.00" shape="2894.12,1955.96 2759.39,1956.45 2769.43,2109.61 2770.47,2187.12 2895.08,2188.22 2894.12,1955.96"/>
    <poly id="270228100" type="amenity" color="237,199,199" fill="1" layer="-1.00" shape="3119.05,2403.46 3119.79,2341.34 3121.56,2341.37 3121.76,2324.79 3124.29,2324.82 3124.47,2310.47 3134.68,2310.59 3134.33,2340.24 3152.26,2340.46 3152.12,2352.37 3157.68,2352.43 3157.54,2364.01 3162.86,2364.07 3162.70,2376.74 3167.80,2376.80 3167.47,2404.03 3119.05,2403.46"/>
    <poly id="270228100#1" type="building" color="255,230,230" fill="1" layer="-1.00" shape="3119.05,2403.46 3119.79,2341.34 3121.56,2341.37 3121.76,2324.79 3124.29,2324.82 3124.47,2310.47 3134.68,2310.59 3134.33,2340.24 3152.26,2340.46 3152.12,2352.37 3157.68,2352.43 3157.54,2364.01 3162.86,2364.07 3162.70,2376.74 3167.80,2376.80 3167.47,2404.03 3119.05,2403.46"/>
    <poly id="270228107" type="parking" color="184,184,179" fill="1" layer="-1.00" shape="3103.43,2415.00 3112.52,2415.25 3122.44,2415.51 3121.72,2441.61 3112.31,2441.35 3102.70,2441.10 3103.43,2415.00"/>
    <poly id="270228108" type="parking" color="184,184,179" fill="1" layer="-1.00" shape="3076.66,2336.58 3078.17,2217.35 3088.77,2217.48 3114.11,2217.80 3123.88,2217.92 3123.86,2219.74 3123.02,2285.68 3122.36,2337.15 3113.15,2337.04 3088.20,2336.72 3076.66,2336.58"/>
    <poly id="270460296" type="tourism" color="207,245,201" fill="1" layer="-2.00" shape="1971.05,2343.83 1969.75,2245.14 2023.64,2243.03 2024.52,2341.72 1971.05,2343.83"/>
    <poly id="270673042" type="tourism" color="207,245,201" fill="1" layer="-2.00" shape="2467.62,2975.30 2581.86,2973.03 2581.97,2862.15 2470.15,2865.86 2467.62,2975.30"/>
    <poly id="270673332" type="tourism" color="207,245,201" fill="1" layer="-2.00" shape="2723.72,2709.52 2724.14,2722.43 2760.91,2727.00 2759.65,2708.68 2723.72,2709.52"/>
    <poly id="276161296" type="tourism" color="207,245,201" fill="1" layer="-2.00" shape="3403.00,2451.32 3402.12,2133.62 3402.11,2129.42 3328.57,2158.29 3290.13,2158.97 3158.42,2161.30 3145.13,2161.53 3133.64,2161.73 3162.92,2234.32 3202.77,2306.19 3195.12,2346.61 3183.44,2400.74 3230.22,2389.07 3259.47,2389.89 3259.91,2458.60 3403.00,2451.32"/>
    <poly id="276161297" type="tourism" color="207,245,201" fill="1" layer="-2.00" shape="3158.42,2161.30 3066.66,1938.89 3066.64,1937.17 3062.76,1557.04 3156.78,1553.73 3159.59,1421.65 3167.88,1032.68 3181.96,940.37 3183.74,655.45 3134.91,564.57 3159.86,463.13 3162.92,350.39 3028.74,353.23 2998.35,353.88 2967.90,410.97 2975.26,526.36 2988.71,642.35 2993.59,678.78 3014.92,678.77 3025.29,727.35 3004.58,732.83 3040.55,796.58 3052.17,920.46 3058.28,986.65 3068.67,1066.19 3030.89,1071.67 3017.56,1244.14 3043.15,1261.74 3049.85,1300.47 3036.92,1361.28 3008.10,1416.26 3002.69,1455.41 2957.05,1530.58 2905.57,1639.12 2903.47,1684.64 2905.60,1714.28 2951.27,1714.26 2956.07,1762.96 2940.14,1770.91 2904.56,1769.33 2900.72,1773.65 2902.99,1829.15 2931.92,1869.31 2975.79,1930.21 3050.16,2023.34 3088.95,2086.85 3121.36,2125.47 3133.64,2161.73 3145.13,2161.53 3158.42,2161.30"/>
    <poly id="338052614" type="landuse" color="194,194,130" fill="1" layer="-3.00" shape="3568.71,1743.57 3563.60,1634.67 3553.97,1551.39 3156.78,1553.73 3062.76,1557.04 3066.64,1937.17 3158.42,2161.30 3328.57,2158.29 3402.11,2129.42 3504.83,2128.17 3576.22,1941.18 3568.71,1743.57"/>
    <poly id="338070764" type="building" color="255,230,230" fill="1" layer="-1.00" shape="2537.38,2335.48 2547.77,2335.49 2547.76,2332.94 2554.66,2332.95 2554.66,2331.46 2561.97,2331.47 2561.97,2329.82 2569.72,2329.82 2569.72,2326.91 2576.56,2326.91 2576.57,2313.66 2568.45,2313.65 2568.46,2295.92 2534.82,2295.89 2534.81,2301.31 2528.12,2301.31 2528.12,2308.03 2516.26,2308.02 2516.25,2318.57 2537.39,2318.60 2537.38,2335.48"/>
    <poly id="338070766" type="amenity" color="237,199,199" fill="1" layer="-1.00" shape="2268.94,2327.65 2274.38,2327.64 2274.40,2331.51 2307.96,2331.39 2307.87,2306.03 2289.26,2306.10 2289.28,2309.19 2268.86,2309.26 2268.94,2327.65"/>
    <poly id="338070768" type="tourism" color="207,245,201" fill="1" layer="-2.00" shape="1895.49,1569.32 1842.90,1569.49 1843.25,1679.91 1950.92,1679.57 1950.72,1616.29 1895.64,1616.46 1895.49,1569.32"/>
    <poly id="338070769" type="amenity" color="237,199,199" fill="1" layer="-1.00" shape="2394.83,2327.04 2456.66,2327.77 2457.03,2297.28 2395.20,2296.54 2394.83,2327.04"/>
    <poly id="338070769#1" type="building" color="255,230,230" fill="1" layer="-1.00" shape="2394.83,2327.04 2456.66,2327.77 2457.03,2297.28 2395.20,2296.54 2394.83,2327.04"/>
    <poly id="338070770" type="amenity" color="237,199,199" fill="1" layer="-1.00" shape="2532.88,2394.53 2543.22,2394.60 2543.23,2392.52 2555.98,2392.59 2556.05,2382.47 2543.59,2382.39 2543.62,2377.58 2532.98,2377.51 2532.88,2394.53"/>
    <poly id="338070770#1" type="building" color="255,230,230" fill="1" layer="-1.00" shape="2532.88,2394.53 2543.22,2394.60 2543.23,2392.52 2555.98,2392.59 2556.05,2382.47 2543.59,2382.39 2543.62,2377.58 2532.98,2377.51 2532.88,2394.53"/>
    <poly id="338070772" type="building" color="255,230,230" fill="1" layer="-1.00" shape="2375.15,2384.44 2387.74,2384.61 2387.77,2382.76 2395.58,2382.87 2395.85,2363.98 2389.47,2363.89 2389.52,2360.72 2375.49,2360.53 2375.15,2384.44"/>
    <poly id="338070773" type="building" color="255,230,230" fill="1" layer="-1.00" shape="1850.64,1659.61 1859.83,1659.65 1859.89,1644.14 1850.70,1644.10 1850.64,1659.61"/>
    <poly id="338070774" type="amenity" color="237,199,199" fill="1" layer="-1.00" shape="2189.53,2273.53 2228.68,2273.48 2228.65,2245.14 2189.50,2245.20 2189.53,2273.53"/>
    <poly id="391843864" type="amenity" color="237,199,199" fill="1" layer="-1.00" shape="2984.34,2344.10 2984.73,2330.76 2999.24,2331.18 2998.85,2344.52 2984.34,2344.10"/>
    <poly id="391843864#1" type="building" color="255,230,230" fill="1" layer="-1.00" shape="2984.34,2344.10 2984.73,2330.76 2999.24,2331.18 2998.85,2344.52 2984.34,2344.10"/>
    <poly id="391843865" type="building" color="255,230,230" fill="1" layer="-1.00" shape="3023.15,2372.09 3015.33,2371.98 3015.14,2386.42 3022.96,2386.52 3023.15,2372.09"/>
    <poly id="391843866" type="building" color="255,230,230" fill="1" layer="-1.00" shape="2930.81,2327.09 2916.28,2327.21 2916.39,2339.57 2930.91,2339.45 2930.81,2327.09"/>
    <poly id="391843867" type="building" color="255,230,230" fill="1" layer="-1.00" shape="2937.51,2370.93 2929.09,2370.68 2928.70,2383.60 2937.13,2383.85 2937.51,2370.93"/>
    <poly id="391843868" type="building" color="255,230,230" fill="1" layer="-1.00" shape="2954.76,2378.73 2943.65,2378.36 2943.34,2387.36 2954.45,2387.74 2954.76,2378.73"/>
    <poly id="391843869" type="building" color="255,230,230" fill="1" layer="-1.00" shape="2972.01,2371.07 2959.25,2370.92 2958.83,2406.34 2971.61,2406.49 2972.01,2371.07"/>
    <poly id="391843870" type="building" color="255,230,230" fill="1" layer="-1.00" shape="2994.11,2371.06 2982.45,2371.05 2982.38,2406.73 3001.17,2406.76 3001.18,2399.92 2994.06,2399.92 2994.11,2371.06"/>
    <poly id="391843871" type="building" color="255,230,230" fill="1" layer="-1.00" shape="3007.18,2372.99 2998.20,2373.01 2998.22,2386.37 3007.21,2386.36 3007.18,2372.99"/>
    <poly id="391843872" type="building" color="255,230,230" fill="1" layer="-1.00" shape="3020.83,2335.51 3005.68,2335.12 3005.44,2344.17 3020.59,2344.57 3020.83,2335.51"/>
    <poly id="391843873" type="building" color="255,230,230" fill="1" layer="-1.00" shape="2967.84,2327.72 2946.67,2328.32 2946.96,2338.32 2968.12,2337.72 2967.84,2327.72"/>
    <poly id="391843874" type="amenity" color="237,199,199" fill="1" layer="-1.00" shape="3028.93,2394.73 3014.36,2394.70 3014.33,2406.79 3028.91,2406.81 3028.93,2394.73"/>
    <poly id="391843874#1" type="building" color="255,230,230" fill="1" layer="-1.00" shape="3028.93,2394.73 3014.36,2394.70 3014.33,2406.79 3028.91,2406.81 3028.93,2394.73"/>
    <poly id="391849997" type="parking" color="184,184,179" fill="1" layer="-1.00" shape="2753.16,2360.67 2714.45,2358.28 2714.46,2371.40 2720.06,2395.41 2752.92,2396.34 2753.16,2360.67"/>
    <poly id="391849998" type="building" color="255,230,230" fill="1" layer="-1.00" shape="2265.94,2379.49 2253.03,2379.51 2253.07,2397.87 2285.89,2397.81 2285.87,2388.33 2265.95,2388.36 2265.94,2379.49"/>
    <poly id="391849999" type="building" color="255,230,230" fill="1" layer="-1.00" shape="2319.39,2366.60 2319.40,2354.99 2311.51,2354.98 2311.50,2372.53 2319.39,2372.53 2319.39,2366.60"/>
    <poly id="391850000" type="building" color="255,230,230" fill="1" layer="-1.00" shape="2468.11,2202.49 2430.30,2201.93 2429.96,2224.47 2467.77,2225.03 2468.11,2202.49"/>
    <poly id="391850001" type="building" color="255,230,230" fill="1" layer="-1.00" shape="2349.94,2355.00 2319.40,2354.99 2319.39,2366.60 2325.89,2366.61 2349.94,2366.62 2349.94,2355.00"/>
    <poly id="391850002" type="building" color="255,230,230" fill="1" layer="-1.00" shape="2522.08,2248.63 2494.71,2248.22 2494.56,2257.99 2513.57,2258.28 2513.27,2278.05 2494.25,2277.76 2494.11,2287.23 2521.49,2287.64 2522.08,2248.63"/>
    <poly id="391850003" type="building" color="255,230,230" fill="1" layer="-1.00" shape="2354.32,2331.60 2354.18,2302.13 2320.24,2302.28 2320.32,2318.96 2333.87,2318.90 2333.93,2331.69 2354.32,2331.60"/>
    <poly id="391850004" type="amenity" color="237,199,199" fill="1" layer="-1.00" shape="2724.00,2307.06 2724.69,2343.04 2736.89,2342.81 2736.72,2333.93 2743.77,2333.80 2743.61,2325.95 2736.66,2326.08 2736.29,2306.83 2724.00,2307.06"/>
    <poly id="391850004#1" type="building" color="255,230,230" fill="1" layer="-1.00" shape="2724.00,2307.06 2724.69,2343.04 2736.89,2342.81 2736.72,2333.93 2743.77,2333.80 2743.61,2325.95 2736.66,2326.08 2736.29,2306.83 2724.00,2307.06"/>
    <poly id="391850005" type="water" color="181,209,209" fill="0" layer="-4.00" shape="2743.82,1785.85 2757.03,1850.98 2760.81,1889.52 2759.07,1902.63 2750.80,1943.47 2754.72,1994.05 2757.04,2039.66 2763.64,2139.58 2762.20,2169.36 2766.61,2232.15"/>
    <poly id="391850006" type="water" color="181,209,209" fill="0" layer="-4.00" shape="2751.63,2300.83 2737.00,2315.32"/>
    <poly id="391850007" type="water" color="181,209,209" fill="0" layer="-4.00" shape="2737.00,2315.32 2707.36,2359.08"/>
    <poly id="391850009" type="water" color="181,209,209" fill="0" layer="-4.00" shape="2707.00,2574.69 2703.99,2596.22"/>
    <poly id="391850010" type="water" color="181,209,209" fill="0" layer="-4.00" shape="2766.61,2232.15 2751.63,2300.83"/>
    <poly id="391850011" type="water" color="181,209,209" fill="0" layer="-4.00" shape="2707.36,2359.08 2708.80,2400.56"/>
    <poly id="391850012" type="water" color="181,209,209" fill="0" layer="-4.00" shape="2714.31,2689.40 2720.28,2710.57"/>
    <poly id="391850013" type="water" color="181,209,209" fill="0" layer="-4.00" shape="2713.06,2504.75 2711.51,2520.88 2709.53,2530.65 2707.00,2574.69"/>
    <poly id="391850016" type="water" color="181,209,209" fill="0" layer="-4.00" shape="2708.80,2400.56 2713.06,2504.75"/>
    <poly id="391850017" type="water" color="181,209,209" fill="0" layer="-4.00" shape="2703.99,2596.22 2703.67,2636.99 2707.03,2649.89 2714.31,2689.40"/>
    <poly id="391850018" type="water" color="181,209,209" fill="0" layer="-4.00" shape="2720.28,2710.57 2721.73,2725.56 2755.79,2731.72 2757.09,2776.07 2727.51,2815.81 2735.21,2872.50 2765.82,2900.16 2769.84,2967.49"/>
    <poly id="391850019" type="amenity" color="237,199,199" fill="1" layer="-1.00" shape="2349.86,2383.80 2325.85,2383.74 2325.83,2389.86 2349.84,2389.92 2349.86,2383.80"/>
    <poly id="391850019#1" type="building" color="255,230,230" fill="1" layer="-1.00" shape="2349.86,2383.80 2325.85,2383.74 2325.83,2389.86 2349.84,2389.92 2349.86,2383.80"/>
    <poly id="391850020" type="building" color="255,230,230" fill="1" layer="-1.00" shape="2280.53,2211.01 2259.06,2211.23 2259.21,2225.43 2280.68,2225.21 2280.53,2211.01"/>
    <poly id="391850021" type="building" color="255,230,230" fill="1" layer="-1.00" shape="2285.87,2388.33 2285.89,2397.81 2304.14,2397.76 2304.08,2375.14 2285.83,2375.19 2285.87,2388.33"/>
    <poly id="391850022" type="building" color="255,230,230" fill="1" layer="-1.00" shape="2223.91,2279.78 2191.44,2280.27 2191.79,2302.77 2211.02,2302.47 2210.92,2296.15 2224.16,2295.95 2223.91,2279.78"/>
    <poly id="391850023" type="building" color="255,230,230" fill="1" layer="-1.00" shape="2577.73,2356.39 2559.96,2356.20 2559.48,2403.14 2577.25,2403.33 2577.73,2356.39"/>
    <poly id="391850024" type="building" color="255,230,230" fill="1" layer="-1.00" shape="2272.86,2254.88 2263.67,2254.98 2263.84,2269.71 2273.02,2269.61 2272.86,2254.88"/>
    <poly id="391850025" type="building" color="255,230,230" fill="1" layer="-1.00" shape="2420.43,2206.78 2410.70,2206.73 2410.59,2225.45 2420.33,2225.50 2420.43,2206.78"/>
    <poly id="391850026" type="building" color="255,230,230" fill="1" layer="-1.00" shape="2262.20,2276.87 2262.46,2304.59 2288.25,2304.35 2288.19,2297.71 2292.27,2297.68 2292.07,2276.59 2262.20,2276.87"/>
    <poly id="391850027" type="building" color="255,230,230" fill="1" layer="-1.00" shape="2744.34,2341.03 2751.51,2341.06 2751.56,2329.57 2744.39,2329.54 2744.34,2341.03"/>
    <poly id="391850028" type="building" color="255,230,230" fill="1" layer="-1.00" shape="2391.28,2225.55 2391.27,2204.69 2381.28,2204.70 2381.29,2225.55 2391.28,2225.55"/>
    <poly id="391850029" type="building" color="255,230,230" fill="1" layer="-1.00" shape="2349.94,2366.62 2325.89,2366.61 2325.87,2377.27 2349.88,2377.34 2349.94,2366.62"/>
    <poly id="391850030" type="building" color="255,230,230" fill="1" layer="-1.00" shape="2692.58,2301.68 2677.53,2301.68 2677.55,2338.29 2692.60,2338.28 2692.58,2301.68"/>
    <poly id="391850031" type="building" color="255,230,230" fill="1" layer="-1.00" shape="2792.48,2308.17 2772.46,2308.16 2772.46,2319.83 2792.47,2319.83 2792.48,2308.17"/>
    <poly id="391850031#1" type="shop" color="237,199,255" fill="1" layer="-1.00" shape="2792.48,2308.17 2772.46,2308.16 2772.46,2319.83 2792.47,2319.83 2792.48,2308.17"/>
    <poly id="391850032" type="building" color="255,230,230" fill="1" layer="-1.00" shape="2231.83,2323.34 2218.33,2323.75 2218.62,2333.01 2232.12,2332.60 2231.83,2323.34"/>
    <poly id="391850033" type="building" color="255,230,230" fill="1" layer="-1.00" shape="2442.92,2355.46 2429.40,2355.16 2428.80,2382.35 2434.23,2382.46 2433.90,2397.51 2467.52,2398.24 2467.86,2382.83 2451.11,2382.46 2451.32,2372.76 2442.55,2372.57 2442.92,2355.46"/>
    <poly id="391850034" type="building" color="255,230,230" fill="1" layer="-1.00" shape="2508.61,2211.75 2492.04,2211.51 2491.81,2227.37 2515.10,2227.71 2515.27,2216.74 2508.53,2216.64 2508.61,2211.75"/>
    <poly id="391850035" type="amenity" color="237,199,199" fill="1" layer="-1.00" shape="2356.52,2246.91 2344.08,2247.03 2344.31,2268.35 2325.78,2268.55 2325.58,2250.45 2314.13,2250.57 2314.44,2280.14 2345.14,2279.82 2345.07,2272.68 2356.80,2272.55 2356.52,2246.91"/>
    <poly id="391850035#1" type="building" color="255,230,230" fill="1" layer="-1.00" shape="2356.52,2246.91 2344.08,2247.03 2344.31,2268.35 2325.78,2268.55 2325.58,2250.45 2314.13,2250.57 2314.44,2280.14 2345.14,2279.82 2345.07,2272.68 2356.80,2272.55 2356.52,2246.91"/>
    <poly id="391850036" type="building" color="255,230,230" fill="1" layer="-1.00" shape="2352.82,2284.73 2331.19,2284.74 2331.19,2296.51 2352.83,2296.50 2352.82,2284.73"/>
    <poly id="391850037" type="building" color="255,230,230" fill="1" layer="-1.00" shape="2306.90,2250.02 2291.37,2250.18 2291.60,2271.91 2307.13,2271.75 2306.90,2250.02"/>
    <poly id="391850037#1" type="shop" color="237,199,255" fill="1" layer="-1.00" shape="2306.90,2250.02 2291.37,2250.18 2291.60,2271.91 2307.13,2271.75 2306.90,2250.02"/>
    <poly id="391850038" type="building" color="255,230,230" fill="1" layer="-1.00" shape="2311.50,2372.53 2311.51,2354.98 2304.82,2354.99 2304.81,2372.53 2311.50,2372.53"/>
    <poly id="391850039" type="building" color="255,230,230" fill="1" layer="-1.00" shape="2349.84,2389.92 2325.83,2389.86 2325.81,2397.49 2349.83,2397.56 2349.84,2389.92"/>
    <poly id="391850039#1" type="shop" color="237,199,255" fill="1" layer="-1.00" shape="2349.84,2389.92 2325.83,2389.86 2325.81,2397.49 2349.83,2397.56 2349.84,2389.92"/>
    <poly id="391850040" type="building" color="255,230,230" fill="1" layer="-1.00" shape="2792.54,2303.88 2792.48,2308.17 2792.47,2319.83 2792.44,2342.29 2792.38,2346.80 2830.53,2346.94 2830.69,2304.03 2792.54,2303.88"/>
    <poly id="391850040#1" type="leisure" color="207,245,201" fill="1" layer="-2.00" shape="2792.54,2303.88 2792.48,2308.17 2792.47,2319.83 2792.44,2342.29 2792.38,2346.80 2830.53,2346.94 2830.69,2304.03 2792.54,2303.88"/>
    <poly id="391850041" type="amenity" color="237,199,199" fill="1" layer="-1.00" shape="2827.37,2373.69 2802.25,2373.56 2802.18,2386.82 2777.37,2386.69 2777.27,2405.84 2831.71,2406.14 2831.83,2385.86 2827.30,2385.82 2827.37,2373.69"/>
    <poly id="391850041#1" type="building" color="255,230,230" fill="1" layer="-1.00" shape="2827.37,2373.69 2802.25,2373.56 2802.18,2386.82 2777.37,2386.69 2777.27,2405.84 2831.71,2406.14 2831.83,2385.86 2827.30,2385.82 2827.37,2373.69"/>
    <poly id="391850041#2" type="shop" color="237,199,255" fill="1" layer="-1.00" shape="2827.37,2373.69 2802.25,2373.56 2802.18,2386.82 2777.37,2386.69 2777.27,2405.84 2831.71,2406.14 2831.83,2385.86 2827.30,2385.82 2827.37,2373.69"/>
    <poly id="391850042" type="building" color="255,230,230" fill="1" layer="-1.00" shape="2772.50,2342.31 2792.44,2342.29 2792.47,2319.83 2772.46,2319.83 2772.50,2342.31"/>
    <poly id="391850043" type="building" color="255,230,230" fill="1" layer="-1.00" shape="2349.88,2377.34 2325.87,2377.27 2325.85,2383.74 2349.86,2383.80 2349.88,2377.34"/>
    <poly id="391850043#1" type="shop" color="237,199,255" fill="1" layer="-1.00" shape="2349.88,2377.34 2325.87,2377.27 2325.85,2383.74 2349.86,2383.80 2349.88,2377.34"/>
    <poly id="391850044" type="building" color="255,230,230" fill="1" layer="-1.00" shape="2410.76,2392.69 2398.43,2392.62 2398.39,2398.98 2410.73,2399.04 2410.76,2392.69"/>
    <poly id="391850045" type="building" color="255,230,230" fill="1" layer="-1.00" shape="2409.60,2204.01 2395.78,2203.90 2395.72,2209.77 2409.55,2209.88 2409.60,2204.01"/>
    <poly id="391858979" type="building" color="255,230,230" fill="1" layer="-1.00" shape="2254.23,2445.56 2259.77,2445.57 2259.79,2422.87 2254.25,2422.87 2254.23,2445.56"/>
    <poly id="391858979#1" type="shop" color="237,199,255" fill="1" layer="-1.00" shape="2254.23,2445.56 2259.77,2445.57 2259.79,2422.87 2254.25,2422.87 2254.23,2445.56"/>
    <poly id="391858982" type="building" color="255,230,230" fill="1" layer="-1.00" shape="2254.27,2416.38 2265.33,2416.40 2265.34,2409.92 2254.27,2409.91 2254.27,2416.38"/>
    <poly id="391858982#1" type="shop" color="237,199,255" fill="1" layer="-1.00" shape="2254.27,2416.38 2265.33,2416.40 2265.34,2409.92 2254.27,2409.91 2254.27,2416.38"/>
    <poly id="391858986" type="building" color="255,230,230" fill="1" layer="-1.00" shape="2254.25,2422.87 2259.79,2422.87 2265.33,2422.88 2265.33,2416.40 2254.27,2416.38 2254.25,2422.87"/>
    <poly id="391858986#1" type="shop" color="237,199,255" fill="1" layer="-1.00" shape="2254.25,2422.87 2259.79,2422.87 2265.33,2422.88 2265.33,2416.40 2254.27,2416.38 2254.25,2422.87"/>
    <poly id="391858989" type="building" color="255,230,230" fill="1" layer="-1.00" shape="2341.89,2417.29 2341.86,2445.65 2349.12,2445.66 2349.15,2417.29 2341.89,2417.29"/>
    <poly id="391858989#1" type="shop" color="237,199,255" fill="1" layer="-1.00" shape="2341.89,2417.29 2341.86,2445.65 2349.12,2445.66 2349.15,2417.29 2341.89,2417.29"/>
    <poly id="391858991" type="building" color="255,230,230" fill="1" layer="-1.00" shape="2230.48,2445.47 2230.29,2414.63 2214.18,2414.72 2214.37,2445.57 2230.48,2445.47"/>
    <poly id="391858991#1" type="shop" color="237,199,255" fill="1" layer="-1.00" shape="2230.48,2445.47 2230.29,2414.63 2214.18,2414.72 2214.37,2445.57 2230.48,2445.47"/>
    <poly id="391858993" type="building" color="255,230,230" fill="1" layer="-1.00" shape="2284.72,2415.13 2284.68,2445.59 2291.90,2445.60 2291.95,2404.62 2284.73,2404.61 2284.72,2415.13"/>
    <poly id="391858993#1" type="shop" color="237,199,255" fill="1" layer="-1.00" shape="2284.72,2415.13 2284.68,2445.59 2291.90,2445.60 2291.95,2404.62 2284.73,2404.61 2284.72,2415.13"/>
    <poly id="391858995" type="building" color="255,230,230" fill="1" layer="-1.00" shape="2254.27,2409.91 2265.34,2409.92 2265.35,2403.43 2254.28,2403.43 2254.27,2409.91"/>
    <poly id="391858995#1" type="shop" color="237,199,255" fill="1" layer="-1.00" shape="2254.27,2409.91 2265.34,2409.92 2265.35,2403.43 2254.28,2403.43 2254.27,2409.91"/>
    <poly id="391858997" type="building" color="255,230,230" fill="1" layer="-1.00" shape="2299.17,2404.63 2299.12,2445.60 2306.33,2445.61 2306.37,2412.55 2306.38,2404.64 2299.17,2404.63"/>
    <poly id="391858997#1" type="shop" color="237,199,255" fill="1" layer="-1.00" shape="2299.17,2404.63 2299.12,2445.60 2306.33,2445.61 2306.37,2412.55 2306.38,2404.64 2299.17,2404.63"/>
    <poly id="391858999" type="building" color="255,230,230" fill="1" layer="-1.00" shape="2325.00,2417.27 2324.97,2445.64 2334.59,2445.64 2334.61,2417.28 2325.00,2417.27"/>
    <poly id="391859001" type="building" color="255,230,230" fill="1" layer="-1.00" shape="2214.18,2414.72 2230.29,2414.63 2230.25,2407.41 2214.14,2407.50 2214.18,2414.72"/>
    <poly id="391859002" type="building" color="255,230,230" fill="1" layer="-1.00" shape="2334.61,2417.28 2341.89,2417.29 2349.15,2417.29 2349.16,2412.22 2334.62,2412.20 2334.61,2417.28"/>
    <poly id="391859003" type="building" color="255,230,230" fill="1" layer="-1.00" shape="2349.17,2407.39 2334.63,2407.38 2334.62,2412.20 2349.16,2412.22 2349.17,2407.39"/>
    <poly id="391859004" type="building" color="255,230,230" fill="1" layer="-1.00" shape="2349.17,2402.57 2334.63,2402.56 2334.63,2407.38 2349.17,2407.39 2349.17,2402.57"/>
    <poly id="391859005" type="building" color="255,230,230" fill="1" layer="-1.00" shape="2315.69,2412.55 2315.66,2445.63 2324.97,2445.64 2325.00,2417.27 2325.01,2412.57 2315.69,2412.55"/>
    <poly id="391859005#1" type="shop" color="237,199,255" fill="1" layer="-1.00" shape="2315.69,2412.55 2315.66,2445.63 2324.97,2445.64 2325.00,2417.27 2325.01,2412.57 2315.69,2412.55"/>
    <poly id="391859006" type="amenity" color="237,199,199" fill="1" layer="-1.00" shape="2214.02,2388.15 2230.13,2388.05 2230.09,2381.53 2213.98,2381.63 2214.02,2388.15"/>
    <poly id="391859006#1" type="building" color="255,230,230" fill="1" layer="-1.00" shape="2214.02,2388.15 2230.13,2388.05 2230.09,2381.53 2213.98,2381.63 2214.02,2388.15"/>
    <poly id="391859007" type="building" color="255,230,230" fill="1" layer="-1.00" shape="2230.01,2368.35 2229.97,2361.12 2207.39,2361.27 2207.44,2368.49 2230.01,2368.35"/>
    <poly id="391859007#1" type="shop" color="237,199,255" fill="1" layer="-1.00" shape="2230.01,2368.35 2229.97,2361.12 2207.39,2361.27 2207.44,2368.49 2230.01,2368.35"/>
    <poly id="391859008" type="amenity" color="237,199,199" fill="1" layer="-1.00" shape="2214.14,2407.50 2230.25,2407.41 2230.21,2400.13 2214.09,2400.23 2214.14,2407.50"/>
    <poly id="391859008#1" type="building" color="255,230,230" fill="1" layer="-1.00" shape="2214.14,2407.50 2230.25,2407.41 2230.21,2400.13 2214.09,2400.23 2214.14,2407.50"/>
    <poly id="391859009" type="building" color="255,230,230" fill="1" layer="-1.00" shape="2259.79,2422.87 2259.77,2445.57 2265.30,2445.57 2265.33,2422.88 2259.79,2422.87"/>
    <poly id="391859009#1" type="shop" color="237,199,255" fill="1" layer="-1.00" shape="2259.79,2422.87 2259.77,2445.57 2265.30,2445.57 2265.33,2422.88 2259.79,2422.87"/>
    <poly id="391859010" type="building" color="255,230,230" fill="1" layer="-1.00" shape="2276.39,2422.89 2276.37,2445.58 2284.68,2445.59 2284.72,2415.13 2276.41,2415.12 2276.39,2422.89"/>
    <poly id="391859010#1" type="shop" color="237,199,255" fill="1" layer="-1.00" shape="2276.39,2422.89 2276.37,2445.58 2284.68,2445.59 2284.72,2415.13 2276.41,2415.12 2276.39,2422.89"/>
    <poly id="391859011" type="building" color="255,230,230" fill="1" layer="-1.00" shape="2230.09,2381.53 2230.06,2374.82 2207.47,2374.95 2207.51,2381.68 2213.98,2381.63 2230.09,2381.53"/>
    <poly id="391859011#1" type="shop" color="237,199,255" fill="1" layer="-1.00" shape="2230.09,2381.53 2230.06,2374.82 2207.47,2374.95 2207.51,2381.68 2213.98,2381.63 2230.09,2381.53"/>
    <poly id="391859012" type="building" color="255,230,230" fill="1" layer="-1.00" shape="2214.09,2400.23 2230.21,2400.13 2230.13,2388.05 2214.02,2388.15 2214.09,2400.23"/>
    <poly id="391859012#1" type="shop" color="237,199,255" fill="1" layer="-1.00" shape="2214.09,2400.23 2230.21,2400.13 2230.13,2388.05 2214.02,2388.15 2214.09,2400.23"/>
    <poly id="391859013" type="building" color="255,230,230" fill="1" layer="-1.00" shape="2265.33,2422.88 2265.30,2445.57 2270.84,2445.57 2270.86,2422.89 2265.33,2422.88"/>
    <poly id="391859013#1" type="shop" color="237,199,255" fill="1" layer="-1.00" shape="2265.33,2422.88 2265.30,2445.57 2270.84,2445.57 2270.86,2422.89 2265.33,2422.88"/>
    <poly id="391859014" type="building" color="255,230,230" fill="1" layer="-1.00" shape="2291.95,2404.62 2291.90,2445.60 2299.12,2445.60 2299.17,2404.63 2291.95,2404.62"/>
    <poly id="391859014#1" type="shop" color="237,199,255" fill="1" layer="-1.00" shape="2291.95,2404.62 2291.90,2445.60 2299.12,2445.60 2299.17,2404.63 2291.95,2404.62"/>
    <poly id="391859015" type="building" color="255,230,230" fill="1" layer="-1.00" shape="2334.59,2445.64 2341.86,2445.65 2341.89,2417.29 2334.61,2417.28 2334.59,2445.64"/>
    <poly id="391859015#1" type="shop" color="237,199,255" fill="1" layer="-1.00" shape="2334.59,2445.64 2341.86,2445.65 2341.89,2417.29 2334.61,2417.28 2334.59,2445.64"/>
    <poly id="391859016" type="building" color="255,230,230" fill="1" layer="-1.00" shape="2270.86,2422.89 2270.84,2445.57 2276.37,2445.58 2276.39,2422.89 2270.86,2422.89"/>
    <poly id="391859016#1" type="shop" color="237,199,255" fill="1" layer="-1.00" shape="2270.86,2422.89 2270.84,2445.57 2276.37,2445.58 2276.39,2422.89 2270.86,2422.89"/>
    <poly id="391859017" type="building" color="255,230,230" fill="1" layer="-1.00" shape="2306.37,2412.55 2306.33,2445.61 2315.66,2445.63 2315.69,2412.55 2306.37,2412.55"/>
    <poly id="391859017#1" type="shop" color="237,199,255" fill="1" layer="-1.00" shape="2306.37,2412.55 2306.33,2445.61 2315.66,2445.63 2315.69,2412.55 2306.37,2412.55"/>
    <poly id="391859018" type="building" color="255,230,230" fill="1" layer="-1.00" shape="2229.97,2361.12 2229.93,2355.24 2207.35,2355.38 2207.39,2361.27 2229.97,2361.12"/>
    <poly id="391859019" type="building" color="255,230,230" fill="1" layer="-1.00" shape="2230.06,2374.82 2230.01,2368.35 2207.44,2368.49 2207.47,2374.95 2230.06,2374.82"/>
    <poly id="391980110" type="building" color="255,230,230" fill="1" layer="-1.00" shape="2557.39,2434.09 2557.27,2447.06 2559.82,2447.08 2559.94,2434.12 2557.39,2434.09"/>
    <poly id="391980110#1" type="shop" color="237,199,255" fill="1" layer="-1.00" shape="2557.39,2434.09 2557.27,2447.06 2559.82,2447.08 2559.94,2434.12 2557.39,2434.09"/>
    <poly id="391980112" type="building" color="255,230,230" fill="1" layer="-1.00" shape="2519.46,2405.97 2519.08,2446.70 2527.38,2446.79 2527.76,2406.05 2519.46,2405.97"/>
    <poly id="391980112#1" type="shop" color="237,199,255" fill="1" layer="-1.00" shape="2519.46,2405.97 2519.08,2446.70 2527.38,2446.79 2527.76,2406.05 2519.46,2405.97"/>
    <poly id="391980113" type="building" color="255,230,230" fill="1" layer="-1.00" shape="2536.06,2406.12 2535.68,2446.86 2544.71,2446.95 2545.09,2406.21 2536.06,2406.12"/>
    <poly id="391980113#1" type="shop" color="237,199,255" fill="1" layer="-1.00" shape="2536.06,2406.12 2535.68,2446.86 2544.71,2446.95 2545.09,2406.21 2536.06,2406.12"/>
    <poly id="391980115" type="building" color="255,230,230" fill="1" layer="-1.00" shape="2454.54,2406.66 2454.11,2446.41 2467.61,2446.55 2468.04,2406.81 2454.54,2406.66"/>
    <poly id="391980115#1" type="shop" color="237,199,255" fill="1" layer="-1.00" shape="2454.54,2406.66 2454.11,2446.41 2467.61,2446.55 2468.04,2406.81 2454.54,2406.66"/>
    <poly id="391980116" type="shop" color="237,199,255" fill="1" layer="-1.00" shape="2385.25,2445.66 2391.33,2445.73 2391.76,2405.99 2385.68,2405.92 2385.25,2445.66"/>