<?xml version="1.0" encoding="UTF-8"?>

<!-- generated on Sun Aug 13 16:01:10 2017 by SUMO duarouter Version 0.30.0
<?xml version="1.0" encoding="UTF-8"?>

<configuration xmlns:xsi="http://www.w3.org/2001/XMLSchema-instance" xsi:noNamespaceSchemaLocation="http://sumo.dlr.de/xsd/duarouterConfiguration.xsd">

    <input>
        <net-file value="drive3_osmmap.net.xml"/>
        <trip-files value="trips.trips.xml"/>
    </input>

    <output>
        <output-file value="drive3_osmmap.rou.xml"/>
    </output>

    <processing>
        <ignore-errors value="true"/>
    </processing>

    <time>
        <begin value="0"/>
        <end value="100.0"/>
    </time>

    <report>
        <no-warnings value="true"/>
        <no-step-log value="true"/>
    </report>

</configuration>
-->

<routes xmlns:xsi="http://www.w3.org/2001/XMLSchema-instance" xsi:noNamespaceSchemaLocation="http://sumo.dlr.de/xsd/routes_file.xsd">
    <vehicle id="0" depart="0.00">
        <route edges="-81768388 -81768438 -5552688 -5552856 -81768230 -81768379 -81768428 -81768253 -81768221 -81768307 -81768224 -81768456 -81768421 -5552668 -75481881 -81768366 -81768277 -342623669 -342623668 -339457800 -339457815 -81768331 -81768289 -5532812 5531422 357658923 357658927 357933238 357933241 357933236 357933243 357933237 357933245 357933239 357933242 81768430 81768405 5531957 81768264 5530724 5530153 308376096 308376077 -5531935#1 -5531935#0 5530615 5531244 5530887 5531245 -81796845 -93315380 -93315366 -99062637 -99062667 -81796849 -98956189 -98956185 -52738262 511697889 5532169 5730331 5532162"/>
    </vehicle>
    <vehicle id="1" depart="1.00">
        <route edges="-5531245 -5530887 -5531244 -5530615 5531935#0 5531935#1 -308376077 -308376096 -5530153 -5530724 -81768264 -5531957 -81768405 -81768430 -357933242 -357933239 -357933245 -357933237 -357933243 -357933236 -357933241 -357933238 -357658927 -357658923 -5531422 5532812 81768289 81768331 339457815 339457800 342623668 342623669 81768277 81768366 75481881 5552668 81768421 81768456 81768224 81768307 81768221 81768253 81768428 81768379 81768230 5552856 5552688 81768438 81768388 192402374 192402375 375729321 375729315 375729329 375729314 375729320 375729309 375729322 375729307 81768415 81768448"/>
    </vehicle>
    <vehicle id="2" depart="2.00">
        <route edges="71186681 375729325 -225206130 -225206131 -227347772 -227347771 -218448136 218448136"/>
    </vehicle>
    <vehicle id="4" depart="4.00">
        <route edges="-81768331 81768331 339457815 339457800 342623668 342623669 81768277 81768366 75481881 5552668 81768421 81768456 81768224 81768307 -81768307"/>
    </vehicle>
    <vehicle id="5" depart="5.00">
        <route edges="5532812 81768289 81768331 339457815 339457800 342623668 342623669 81768277 81768366 75481881 5552668 81768421 81768456 81768224 81768307 81768221 81768253 81768428 81768379 81768230 5552856 5552688 81768438 81768388 192402374 192402375 375729321 375729315 375729329 375729314 375729320 375729309 375729322 375729307 81768415 81768448 375729328 375729311 375729324 375729312 375729327 375729310 375729323 375729306 375729319 375729313 375729326 375729308 71186682 71186681 375729325 -225206130 -225206131 -227347772 -227347771 -218448136"/>
    </vehicle>
    <vehicle id="6" depart="6.00">
        <route edges="-357933242 -357933239 -357933245 -357933237 -357933243 -357933236 -357933241 -357933238 -357658927 -357658923 -5531422 5532812 81768289 81768331 339457815 339457800 342623668 342623669 81768277 81768366 75481881 5552668 81768421 81768456 81768224 81768307 81768221 81768253 81768428 81768379 81768230 5552856 5552688 81768438 81768388"/>
    </vehicle>
    <vehicle id="7" depart="7.00">
        <route edges="-342623668 -339457800 -339457815 -81768331 -81768289 -5532812 5531422 357658923 357658927 357933238 357933241 357933236 357933243 357933237 357933245 357933239 357933242 -357933242"/>
    </vehicle>
    <vehicle id="9" depart="9.00">
        <route edges="81768253 -81768253 -81768221 -81768307 81768307"/>
    </vehicle>
    <vehicle id="10" depart="10.00">
        <route edges="-97328320 -5821957 5821743 472100065 472100066 -5822014 -353665074 -119006812 -5822010 -5821771 -52738278 52738277 413176900 413176899 5821745 71054167 71054171 413178623 413179325 413179324 413180089 413180087 413178625 413180553 413180554 -197189908 -413183635 -413183631 -413188754 -413188753 -413188756 -413188752 -413188755 -413188751 -413554362"/>
    </vehicle>
    <vehicle id="11" depart="11.00">
        <route edges="342623669 81768277 81768366 75481881 5552668 81768421 81768456 81768224 81768307 81768221 81768253 81768428 81768379 81768230 5552856 5552688 81768438 81768388 192402374 192402375 -192402375"/>
    </vehicle>
    <vehicle id="12" depart="12.00">
        <route edges="-357933242 -357933239 -357933245 -357933237 -357933243 -357933236 -357933241 -357933238 -357658927 -357658923 -5531422 5532812 81768289 81768331 339457815 339457800 342623668 342623669 81768277 81768366 75481881 5552668 81768421 81768456 81768224 81768307 -81768307"/>
    </vehicle>
    <vehicle id="13" depart="13.00">
        <route edges="-5532158 5532158 5821737 -504860430 -97328320 -5821957 5821743 472100065 472100066 -5822014 -353665074 -119006812 -5822010 -5821771 -52738278 52738277 413176900 413176899 5821745 71054167 71054171 413178623 413179325 413179324 413180089 413180087 413178625 413180553 413180554 -197189908 -413183635 -413183631 -413188754 -413188753 -413188756 -413188752 -413188755 -413188751 -413554362"/>
    </vehicle>
    <vehicle id="14" depart="14.00">
        <route edges="-5532162 -5730331 -5532169 -511697889 52738262 98956185 98956189 81796849 99062667 99062637 93315366 93315380 81796845 -5531245 -5530887 -5531244 -5530615 5531935#0 5531935#1 -308376077 -308376096 -5530153 -5530724 -81768264 -5531957 -81768405 -81768430 -357933242 357933242"/>
    </vehicle>
    <vehicle id="15" depart="15.00">
        <route edges="90139266 52733955 45814227 45814228 45814223 45814214 45814240 45814209 90139207 90139302 90139264 90139238 35795024 90211699 90211364 90211812 90211527 90211819 90211540 90211763 90211454 52738272 -143011937 -52738273 -143011935 -119006804 -455261476 5811672 5817161 119006856 455261484 455261483 5816644 455261482 45249335 455261481 45249343 139470634 418410828 413554362 413188751 413188755 413188752 413188756 413188753 413188754 413183631 413183635 197189908 -413180554 -413180553 -413178625 -413180087 -413180089 -413179324 -413179325 -413178623 -71054171 -71054167 -5821745 -413176899 -413176900 -52738277 52738278 5821771 5822010 119006812 353665074 5822014 -472100066 -472100065 -5821743 5821957 97328320 504860430 -5821737 -5532158 -5730330 -5532162 -5730331 -5532169 -511697889 52738262 98956185 98956189 81796849 99062667 99062637 93315366 93315380 81796845 -5531245 -5530887 -5531244 -5530615 5531935#0 5531935#1 -308376077 -308376096 -5530153 -5530724 -81768264 -5531957 -81768405 -81768430 -357933242 -357933239 -357933245 -357933237 -357933243 -357933236 -357933241 -357933238 -357658927 -357658923 -5531422 5532812 -5532812"/>
    </vehicle>
    <vehicle id="16" depart="16.00">
        <route edges="-81768253 -81768221 -81768307 81768307"/>
    </vehicle>
    <vehicle id="17" depart="17.00">
        <route edges="-246472145 -5821982 5543392 218448137 218448136 227347771 227347772 225206131 225206130 -375729325 -71186681 -71186682 -375729308 -375729326 -375729313 -375729319 -375729306 -375729323 -375729310 -375729327 -375729312 -375729324 -375729311 -375729328 -81768448 -81768415 -375729307 -375729322 -375729309 -375729320 -375729314 -375729329 -375729315 -375729321 -192402375 -192402374 -81768388 -81768438 -5552688 -5552856 -81768230 -81768379 -81768428 -81768253 -81768221 -81768307 -81768224 -81768456 -81768421 -5552668 -75481881 -81768366 -81768277 -342623669 -342623668"/>
    </vehicle>
    <vehicle id="18" depart="18.00">
        <route edges="413554362 413188751 413188755 -413188755"/>
    </vehicle>
    <vehicle id="19" depart="19.00">
        <route edges="81768331 -81768331 -81768289 -5532812 5531422 357658923 357658927 357933238 357933241 357933236 357933243 357933237 357933245 357933239 357933242 81768430 81768405 5531957 81768264 5530724 5530153 308376096 308376077 -5531935#1 -5531935#0 5530615 5531244 5530887 5531245 -81796845"/>
    </vehicle>
    <vehicle id="20" depart="20.00">
        <route edges="-246472145 -5821982 5543392 218448137 218448136 227347771 227347772 225206131 225206130 -375729325 -71186681 -71186682 -375729308 -375729326 -375729313 -375729319 -375729306 -375729323 -375729310 -375729327 -375729312 -375729324 -375729311 -375729328 -81768448 -81768415 -375729307 -375729322 -375729309 -375729320 -375729314 -375729329 -375729315 -375729321 -192402375 -192402374 -81768388 -81768438 -5552688 -5552856 -81768230 -81768379 -81768428 -81768253 -81768221 -81768307 -81768224 -81768456 -81768421 -5552668 -75481881 -81768366 -81768277 -342623669 -342623668 -339457800 339457800"/>
    </vehicle>
    <vehicle id="21" depart="21.00">
        <route edges="-5532162 -5730331 -5532169 -511697889 52738262 98956185 98956189 81796849 99062667 99062637 93315366 93315380 81796845 -5531245 -5530887 -5531244 -5530615 5531935#0 5531935#1 -308376077 -308376096 -5530153 -5530724 -81768264 -5531957 -81768405 -81768430 -357933242 -357933239 -357933245 -357933237 -357933243 -357933236 -357933241 -357933238 -357658927 -357658923 -5531422 5532812 81768289 81768331 339457815 339457800 342623668 342623669 81768277 81768366 75481881 5552668 81768421 81768456 81768224 81768307 81768221 81768253 81768428 81768379 81768230 5552856 5552688 81768438 81768388 -81768388"/>
    </vehicle>
    <vehicle id="22" depart="22.00">
        <route edges="-218448136 218448136 227347771 227347772 225206131 225206130 -375729325 -71186681 -71186682 -375729308 -375729326 -375729313 -375729319 -375729306 -375729323 -375729310 -375729327 -375729312 -375729324 -375729311 -375729328 -81768448 -81768415 -375729307 -375729322 -375729309 -375729320 -375729314 -375729329 -375729315 -375729321 -192402375 -192402374 -81768388 -81768438 -5552688 -5552856 -81768230 -81768379 -81768428 -81768253 -81768221 -81768307 -81768224 -81768456 -81768421 -5552668 -75481881 -81768366 -81768277 -342623669 -342623668 -339457800 -339457815 -81768331 -81768289 -5532812 5531422 357658923 357658927 357933238 357933241 357933236 357933243 357933237 357933245 357933239 357933242"/>
    </vehicle>
    <vehicle id="23" depart="23.00">
        <route edges="-357933242 -357933239 -357933245 -357933237 -357933243 -357933236 -357933241 -357933238 -357658927 -357658923 -5531422 5532812 81768289 81768331 339457815 339457800 342623668 342623669 81768277 81768366 75481881 5552668 81768421 81768456 81768224 81768307 81768221 81768253 81768428 81768379 81768230 5552856 5552688 81768438 81768388 192402374 192402375 375729321 375729315 375729329 375729314 375729320 375729309 375729322 375729307 81768415 81768448 375729328 375729311 375729324 375729312 375729327 375729310 375729323 375729306 375729319 375729313 375729326 375729308 71186682 71186681 -71186681"/>
    </vehicle>
    <vehicle id="24" depart="24.00">
        <route edges="81768430 -81768430 -357933242"/>
    </vehicle>
    <vehicle id="25" depart="25.00">
        <route edges="-413554362 -418410828 -139470634 -45249343 -455261481 -45249335 -455261482 -5816644 -455261483 -455261484 -119006856 -5817161 -5811672 455261476 119006804 143011935 52738273 143011937 -52738272 52738272"/>
    </vehicle>
    <vehicle id="26" depart="26.00">
        <route edges="375729311 -375729311 -375729328 -81768448 -81768415 -375729307 -375729322 -375729309 -375729320 -375729314 -375729329 -375729315 -375729321 -192402375 -192402374 -81768388 -81768438 -5552688 -5552856 -81768230 -81768379 -81768428 -81768253 81768253"/>
    </vehicle>
    <vehicle id="27" depart="27.00">
        <route edges="-413554362 413554362 413188751 413188755 413188752 413188756 413188753 413188754 413183631 413183635 197189908 -413180554 -413180553 -413178625 -413180087 -413180089 -413179324 -413179325 -413178623 -71054171 -71054167 -5821745 -413176899 -413176900 -52738277 52738278 5821771 5822010 119006812 353665074 5822014 -472100066 -472100065 -5821743 5821957 97328320 504860430 -5821737 -5532158 -5730330 -5532162 -5730331 5730331"/>
    </vehicle>
    <vehicle id="28" depart="28.00">
        <route edges="-45249343 45249343 139470634 418410828 413554362 413188751 413188755 413188752 413188756 413188753 413188754 413183631 413183635 197189908 -413180554 -413180553 -413178625 -413180087 -413180089 -413179324 -413179325 -413178623 -71054171 -71054167 -5821745 -413176899 -413176900 -52738277 52738278 5821771 5822010 119006812 353665074 5822014 -472100066 -472100065 -5821743 5821957 97328320 504860430 -5821737 -5532158 -5730330 -5532162 -5730331 -5532169 -511697889 52738262 98956185 98956189 81796849 99062667 99062637 93315366 93315380 81796845 -5531245 -5530887 -5531244 -5530615 5531935#0 5531935#1 -308376077 -308376096 -5530153 -5530724 -81768264 -5531957 -81768405 -81768430 -357933242 -357933239 -357933245 -357933237 -357933243 -357933236 -357933241 -357933238 -357658927 -357658923 -5531422 5532812 81768289 81768331 339457815 339457800 342623668 342623669 81768277 81768366 75481881 5552668 81768421 81768456 81768224 81768307 81768221 81768253 81768428 81768379 81768230 5552856 5552688 81768438 81768388 192402374 192402375 375729321 375729315 375729329 375729314 375729320 375729309 375729322 375729307"/>
    </vehicle>
    <vehicle id="29" depart="29.00">
        <route edges="-5821737 -5532158 -5730330 -5532162 -5730331 -5532169 -511697889 52738262 98956185 98956189 81796849 99062667 99062637 93315366 93315380 81796845 -5531245 -5530887 -5531244 -5530615 5531935#0 5531935#1 -308376077 -308376096 -5530153 -5530724 -81768264 -5531957 -81768405 -81768430 -357933242 -357933239 -357933245 -357933237 -357933243 -357933236 -357933241 -357933238 -357658927 -357658923 -5531422 5532812 81768289 81768331 339457815 339457800 342623668 342623669 81768277 81768366"/>
    </vehicle>
    <vehicle id="30" depart="30.00">
        <route edges="-218448136 -218448137 -5543392 5821982 246472145"/>
    </vehicle>
    <vehicle id="31" depart="31.00">
        <route edges="413554362 413188751 413188755 413188752 413188756 413188753 413188754 413183631 413183635 197189908 -413180554 -413180553 -413178625 -413180087 -413180089 -413179324 -413179325 -413178623 -71054171 -71054167 -5821745 -413176899 -413176900 -52738277 52738278 5821771 5822010 119006812 353665074 5822014 -472100066 -472100065 -5821743 5821957 97328320 504860430 -5821737 -5532158 -5730330 -5532162 -5730331 -5532169 -511697889 52738262 98956185 98956189 81796849 99062667 99062637 93315366 93315380 81796845 -5531245 -5530887 -5531244 -5530615 5531935#0 5531935#1 -308376077 -308376096 -5530153 -5530724 -81768264 -5531957 -81768405 -81768430 -357933242 -357933239 -357933245 -357933237 -357933243 -357933236 -357933241 -357933238 -357658927 -357658923 -5531422 5532812 81768289 81768331 339457815 339457800 342623668 342623669 81768277 81768366 75481881 5552668 81768421 81768456 81768224 81768307 81768221 81768253 81768428 81768379 81768230 5552856 5552688 81768438 81768388 192402374 192402375 375729321 375729315 375729329 375729314 375729320 375729309 375729322 375729307 81768415 81768448 375729328 375729311 375729324 375729312 375729327 375729310 375729323 375729306 375729319 375729313 375729326 375729308 71186682 71186681 375729325 -225206130 -225206131 -227347772 -227347771 -218448136 -218448137 -5543392 5821982"/>
    </vehicle>
    <vehicle id="32" depart="32.00">
        <route edges="-227347772 227347772 225206131 225206130 -375729325 -71186681 -71186682 -375729308 -375729326 -375729313 -375729319 -375729306 -375729323 -375729310 -375729327 -375729312 -375729324 -375729311 -375729328 -81768448 -81768415 -375729307 -375729322 -375729309 -375729320 -375729314 -375729329 -375729315 -375729321 -192402375 -192402374 -81768388 -81768438 -5552688 -5552856 -81768230 -81768379 -81768428 -81768253 -81768221 -81768307 -81768224 -81768456 -81768421 -5552668 -75481881 -81768366"/>
    </vehicle>
    <vehicle id="33" depart="33.00">
        <route edges="71186681 -71186681 -71186682 -375729308 -375729326 -375729313 -375729319 -375729306 -375729323 -375729310 -375729327 -375729312 -375729324 -375729311 -375729328 -81768448 -81768415 -375729307 -375729322 -375729309 -375729320 -375729314 -375729329 -375729315 -375729321 -192402375 -192402374 -81768388 -81768438 -5552688 -5552856 -81768230 -81768379 -81768428 -81768253 -81768221 -81768307 -81768224 -81768456 81768456"/>
    </vehicle>
    <vehicle id="34" depart="34.00">
        <route edges="52733955 45814227 45814228 45814223 45814214 45814240 45814209 90139207 90139302 90139264 90139238 35795024 90211699 90211364 90211812 90211527 90211819 90211540 90211763 90211454 52738272 -143011937 -52738273 -143011935 -119006804 -455261476 5811672 5817161 119006856 455261484 455261483 5816644 455261482 45249335 455261481 45249343 139470634 418410828 413554362 413188751 413188755 413188752 413188756 413188753 413188754 413183631 413183635 197189908 -413180554 -413180553 -413178625 -413180087 -413180089 -413179324 -413179325 -413178623 -71054171 -71054167 -5821745 -413176899 -413176900 -52738277 52738278 5821771 5822010 119006812 353665074 5822014 -472100066 -472100065 -5821743 5821957 97328320 504860430 -5821737 -5532158 -5730330 -5532162 -5730331 -5532169 -511697889 52738262 98956185 98956189 81796849 99062667 99062637 93315366 93315380 81796845 -5531245 -5530887 -5531244 -5530615 5531935#0 5531935#1 -308376077 -308376096 -5530153 -5530724 -81768264 -5531957 -81768405 -81768430 -357933242 -357933239 -357933245 -357933237 -357933243 -357933236 -357933241 -357933238 -357658927 -357658923 -5531422 5532812 81768289 81768331 339457815 339457800 342623668 342623669 81768277 81768366 75481881 5552668 81768421 81768456 81768224 81768307 81768221 81768253 81768428 81768379 81768230 5552856 5552688 81768438 81768388 192402374 192402375 375729321 375729315 375729329 375729314 375729320 375729309 375729322 375729307 81768415 81768448 375729328 375729311 375729324 375729312 375729327 375729310 375729323 375729306 375729319 375729313 375729326 375729308 71186682 71186681 375729325 -225206130 -225206131 -227347772 -227347771 -218448136"/>
    </vehicle>
    <vehicle id="35" depart="35.00">
        <route edges="-218448136 218448136 227347771 227347772 225206131 225206130 -375729325 -71186681 -71186682 -375729308 -375729326 -375729313 -375729319 -375729306 -375729323 -375729310 -375729327 -375729312 -375729324 -375729311 -375729328 -81768448 -81768415 -375729307 -375729322 -375729309 -375729320 -375729314 -375729329 -375729315 -375729321 -192402375 -192402374 -81768388 -81768438 -5552688 -5552856 -81768230 -81768379 -81768428 -81768253 -81768221 -81768307 -81768224 -81768456 -81768421 -5552668 -75481881 -81768366 -81768277 -342623669 342623669"/>
    </vehicle>
    <vehicle id="36" depart="36.00">
        <route edges="357933242 -357933242 -357933239 -357933245 -357933237 -357933243 -357933236 -357933241 -357933238 -357658927 -357658923 -5531422 5532812 81768289 81768331 339457815 339457800 342623668 342623669 81768277 81768366 75481881 5552668 81768421 81768456 81768224 81768307 81768221 81768253 81768428 81768379 81768230 5552856 5552688 81768438 81768388 192402374 192402375 375729321 375729315 375729329 375729314 375729320 375729309 375729322 375729307 81768415 81768448 375729328 375729311 375729324 375729312 375729327 375729310 375729323 375729306 375729319 375729313 375729326 375729308 71186682 71186681 375729325 -225206130 -225206131 -227347772 -227347771 -218448136 218448136"/>
    </vehicle>
    <vehicle id="37" depart="37.00">
        <route edges="5532169 -5532169 -511697889 52738262 98956185 98956189 81796849 99062667 99062637 93315366 93315380 81796845 -5531245 -5530887 -5531244 -5530615 5531935#0 5531935#1 -308376077 -308376096 -5530153 -5530724 -81768264 -5531957 -81768405 -81768430 -357933242 357933242"/>
    </vehicle>
    <vehicle id="38" depart="38.00">
        <route edges="-81768456 81768456 81768224 81768307 81768221 81768253 81768428 81768379 81768230 5552856 5552688 81768438 81768388 192402374 192402375 375729321 375729315 375729329 375729314 375729320 375729309 375729322 375729307 81768415 81768448 375729328 375729311 375729324 375729312 375729327 375729310 375729323 375729306 375729319 375729313 375729326 375729308 71186682 71186681 375729325 -225206130 -225206131 -227347772 -227347771 -218448136"/>
    </vehicle>
    <vehicle id="39" depart="39.00">
        <route edges="5730331 -5730331 -5532169 -511697889 52738262 98956185 98956189 81796849 99062667 99062637 93315366 93315380 81796845 -5531245 -5530887 -5531244 -5530615 5531935#0 5531935#1 -308376077 -308376096 -5530153 -5530724 -81768264 -5531957 -81768405 -81768430 -357933242 -357933239 -357933245 -357933237 -357933243 -357933236 -357933241 -357933238 -357658927 -357658923 -5531422 5532812 81768289 81768331 339457815 339457800 342623668 342623669 81768277 81768366 75481881 5552668 81768421 81768456 81768224 81768307 81768221 81768253 81768428 81768379 81768230 5552856 5552688 81768438 81768388 192402374 192402375 375729321 375729315 375729329 375729314 375729320 375729309 375729322 375729307 81768415 81768448 375729328 375729311 375729324 375729312 375729327 375729310 375729323 375729306 375729319 375729313 375729326 375729308 71186682 71186681 375729325 -225206130 -225206131 -227347772 227347772"/>
    </vehicle>
    <vehicle id="40" depart="40.00">
        <route edges="-71186681 -71186682 -375729308 -375729326 -375729313 -375729319 -375729306 -375729323 -375729310 -375729327 -375729312 375729312"/>
    </vehicle>
    <vehicle id="41" depart="41.00">
        <route edges="-375729306 375729306 375729319 375729313 375729326 375729308"/>
    </vehicle>
    <vehicle id="42" depart="42.00">
        <route edges="357933242 -357933242 -357933239 -357933245 -357933237 -357933243 357933243"/>
    </vehicle>
    <vehicle id="44" depart="44.00">
        <route edges="71186681 -71186681 -71186682 -375729308 -375729326 -375729313 -375729319 -375729306 -375729323 -375729310 -375729327 -375729312 -375729324 -375729311 -375729328 -81768448 -81768415 -375729307 -375729322 -375729309 -375729320 -375729314 -375729329 -375729315 -375729321 -192402375 -192402374 -81768388 -81768438 -5552688 -5552856 -81768230 -81768379 -81768428 -81768253 -81768221 -81768307 -81768224 -81768456 -81768421 -5552668 -75481881 -81768366 -81768277 -342623669 -342623668 -339457800 -339457815 -81768331 -81768289 -5532812 5531422 357658923 357658927 357933238 357933241 357933236 357933243 357933237 357933245 357933239 357933242 81768430 81768405 5531957 81768264 5530724 5530153 308376096 308376077 -5531935#1 -5531935#0 5530615 5531244 5530887 5531245 -81796845 -93315380 -93315366 -99062637 -99062667 -81796849 -98956189 -98956185 -52738262 511697889 5532169 5730331 5532162 5730330 5532158 5821737 -504860430 -97328320 -5821957 5821743"/>
    </vehicle>
    <vehicle id="46" depart="46.00">
        <route edges="-218448136 218448136 227347771 227347772 225206131 225206130 -375729325 -71186681 -71186682 -375729308 -375729326 -375729313 -375729319 -375729306 -375729323 -375729310 -375729327 -375729312 -375729324 -375729311 -375729328 -81768448 -81768415 -375729307 -375729322 -375729309 -375729320 -375729314 -375729329 -375729315 -375729321 -192402375 -192402374 -81768388 -81768438 -5552688 -5552856 -81768230 -81768379 -81768428 -81768253 -81768221 -81768307"/>
    </vehicle>
    <vehicle id="47" depart="47.00">
        <route edges="413554362 413188751 413188755 413188752 413188756 413188753 413188754 413183631 413183635 197189908 -413180554 -413180553 -413178625 -413180087 -413180089 -413179324 -413179325 -413178623 -71054171 -71054167 -5821745 -413176899 -413176900 -52738277 52738278 5821771 5822010 119006812 353665074 5822014 -472100066 -472100065 472100065"/>
    </vehicle>
    <vehicle id="48" depart="48.00">
        <route edges="5821743 -5821743 5821957 97328320 504860430 -5821737 -5532158 -5730330 -5532162 5532162"/>
    </vehicle>
    <vehicle id="49" depart="49.00">
        <route edges="-71054171 -71054167 -5821745 -413176899 -413176900 -52738277 52738278 5821771 5822010 119006812 353665074 5822014 -472100066 -472100065 -5821743 5821957 97328320 504860430 -5821737 -5532158 -5730330 -5532162 -5730331 -5532169 -511697889 52738262 98956185 98956189 81796849 99062667 99062637 93315366 93315380 81796845 -5531245 -5530887 -5531244 -5530615 5531935#0 5531935#1 -308376077 -308376096 -5530153 -5530724 -81768264 -5531957 -81768405 -81768430 -357933242 -357933239 -357933245 -357933237 -357933243 -357933236 -357933241 -357933238 -357658927 -357658923 -5531422 5532812 81768289 81768331 339457815 339457800 342623668 342623669 81768277 81768366 75481881 5552668 81768421 81768456 81768224 81768307 81768221 81768253 81768428 81768379 81768230 5552856 5552688 81768438 81768388 192402374 192402375 375729321 375729315 375729329 375729314 375729320 375729309 375729322 375729307 81768415 81768448 375729328 375729311 375729324 375729312 375729327 375729310 375729323 375729306 375729319 375729313 375729326 375729308 71186682 71186681"/>
    </vehicle>
    <vehicle id="50" depart="50.00">
        <route edges="218448136 -218448136 -218448137 -5543392 5543392"/>
    </vehicle>
    <vehicle id="51" depart="51.00">
        <route edges="81768448 -81768448 -81768415 -375729307 -375729322 -375729309 -375729320 -375729314 -375729329 -375729315 -375729321 -192402375 -192402374 -81768388 -81768438 -5552688 -5552856 -81768230 -81768379 -81768428 -81768253 -81768221 -81768307 -81768224 -81768456 -81768421 -5552668 -75481881 -81768366"/>
    </vehicle>
    <vehicle id="52" depart="52.00">
        <route edges="225206130 -225206130 -225206131 -227347772 -227347771 -218448136 -218448137 -5543392 5821982 246472145 -246472145"/>
    </vehicle>
    <vehicle id="53" depart="53.00">
        <route edges="-218448136 218448136 227347771 227347772 225206131 225206130 -225206130"/>
    </vehicle>
    <vehicle id="54" depart="54.00">
        <route edges="-413180089 413180089 413180087 413178625 413180553 413180554 -197189908 -413183635 -413183631 -413188754 -413188753 -413188756 -413188752 -413188755 -413188751 -413554362 -418410828 -139470634 -45249343 -455261481 -45249335 -455261482 -5816644 -455261483 -455261484 -119006856 -5817161 -5811672 455261476 119006804 143011935 52738273 143011937 -228668 90211609#1 52738271 90211744 90211777 90211845 90211579 90211834 90211568 90211517 90211710 35799381 90139240 90139219 90139307 90139270"/>
    </vehicle>
    <vehicle id="55" depart="55.00">
        <route edges="95159899 -95159899 -95159878 -246472145 -5821982 5543392 218448137 218448136 227347771 227347772 225206131 225206130 -375729325 -71186681 -71186682 -375729308 -375729326 -375729313 -375729319 -375729306 -375729323 -375729310 -375729327 -375729312 -375729324 -375729311 -375729328 -81768448 -81768415 -375729307 -375729322 -375729309 -375729320 -375729314 -375729329 -375729315 -375729321 -192402375 -192402374 -81768388 -81768438 -5552688 -5552856 -81768230 -81768379 -81768428 -81768253 -81768221 -81768307 -81768224 -81768456 -81768421 -5552668 -75481881 -81768366 -81768277 -342623669 -342623668 -339457800 -339457815 -81768331 -81768289 -5532812 5531422 357658923 357658927 357933238 357933241 357933236 357933243 357933237 357933245 357933239 357933242 81768430 81768405 5531957 81768264 5530724 5530153 308376096 308376077 -5531935#1 -5531935#0 5530615 5531244 5530887 5531245 -81796845 -93315380 -93315366 -99062637 -99062667 -81796849 -98956189 -98956185 -52738262 511697889 5532169 5730331 5532162 5730330 5532158 5821737 -504860430 -97328320 -5821957 5821743 472100065 472100066 -5822014 -353665074 -119006812 -5822010 -5821771 -52738278 52738277 413176900 413176899 5821745 71054167 71054171"/>
    </vehicle>
    <vehicle id="56" depart="56.00">
        <route edges="-81768366 -81768277 -342623669 -342623668"/>
    </vehicle>
    <vehicle id="57" depart="57.00">
        <route edges="-418410828 418410828 413554362 413188751 413188755 413188752 413188756 413188753 413188754 413183631 413183635 197189908 -413180554 -413180553 -413178625 -413180087 -413180089 -413179324 -413179325 -413178623 -71054171 -71054167 -5821745 -413176899 -413176900 -52738277 52738278 5821771 5822010 119006812 353665074 5822014 -472100066 -472100065 -5821743 5821957 97328320 504860430 -5821737 -5532158 -5730330 -5532162 -5730331 -5532169 -511697889 52738262 98956185 98956189 81796849 99062667 99062637 93315366 93315380 81796845 -5531245 -5530887 -5531244 -5530615 5531935#0 5531935#1 -308376077 -308376096 -5530153 -5530724 -81768264 -5531957 -81768405 -81768430 -357933242 -357933239 -357933245 -357933237 -357933243 -357933236 -357933241 -357933238 -357658927 -357658923 -5531422 5532812 81768289 81768331 339457815 339457800 342623668 342623669 81768277 81768366 75481881 5552668 81768421 81768456 81768224 81768307 81768221 81768253 81768428 81768379 81768230 5552856 5552688 81768438 81768388 192402374 192402375 375729321 375729315 375729329 375729314 375729320 375729309 375729322 375729307 81768415 81768448 375729328 375729311 375729324 375729312 375729327 375729310 375729323 375729306 375729319 375729313 375729326 375729308 71186682 71186681 375729325 -225206130 -225206131 -227347772 -227347771 -218448136 218448136"/>
    </vehicle>
    <vehicle id="58" depart="58.00">