<?xml version="1.0" encoding="UTF-8"?>

<!-- generated on Sun Aug 13 15:53:25 2017 by SUMO netconvert Version 0.30.0
<?xml version="1.0" encoding="UTF-8"?>

<configuration xmlns:xsi="http://www.w3.org/2001/XMLSchema-instance" xsi:noNamespaceSchemaLocation="http://sumo.dlr.de/xsd/netconvertConfiguration.xsd">

    <input>
        <osm-files value="drive3_osmmap.osm"/>
    </input>

    <output>
        <output-file value="drive3_osmmap.net.xml"/>
        <output.street-names value="true"/>
        <output.original-names value="true"/>
    </output>

    <projection>
        <proj.utm value="true"/>
    </projection>

</configuration>
-->

<net version="0.27" xmlns:xsi="http://www.w3.org/2001/XMLSchema-instance" xsi:noNamespaceSchemaLocation="http://sumo.dlr.de/xsd/net_file.xsd">

    <location netOffset="-527727.31,-5054614.26" convBoundary="0.00,0.00,337154.14,292556.04" origBoundary="-110.644078,45.644299,-106.141363,48.194849" projParameter="+proj=utm +zone=12 +ellps=WGS84 +datum=WGS84 +units=m +no_defs"/>

    <type id="highway.bridleway" priority="1" numLanes="1" speed="2.78" allow="pedestrian" oneway="1" width="2.00"/>
    <type id="highway.bus_guideway" priority="1" numLanes="1" speed="8.33" allow="bus" oneway="1"/>
    <type id="highway.cycleway" priority="1" numLanes="1" speed="5.56" allow="bicycle" oneway="0" width="1.00"/>
    <type id="highway.footway" priority="1" numLanes="1" speed="2.78" allow="pedestrian" oneway="1" width="2.00"/>
    <type id="highway.ford" priority="1" numLanes="1" speed="2.78" allow="army" oneway="0"/>
    <type id="highway.living_street" priority="3" numLanes="1" speed="2.78" disallow="tram rail_urban rail rail_electric ship" oneway="0"/>
    <type id="highway.motorway" priority="13" numLanes="2" speed="44.44" allow="private emergency authority army vip passenger hov taxi bus coach delivery truck trailer motorcycle evehicle custom1 custom2" oneway="1"/>
    <type id="highway.motorway_link" priority="12" numLanes="1" speed="22.22" allow="private emergency authority army vip passenger hov taxi bus coach delivery truck trailer motorcycle evehicle custom1 custom2" oneway="1"/>
    <type id="highway.path" priority="1" numLanes="1" speed="2.78" allow="bicycle pedestrian" oneway="1" width="2.00"/>
    <type id="highway.pedestrian" priority="1" numLanes="1" speed="2.78" allow="pedestrian" oneway="1" width="2.00"/>
    <type id="highway.primary" priority="9" numLanes="2" speed="27.78" disallow="tram rail_urban rail rail_electric ship" oneway="0"/>
    <type id="highway.primary_link" priority="8" numLanes="1" speed="22.22" disallow="tram rail_urban rail rail_electric ship" oneway="0"/>
    <type id="highway.raceway" priority="14" numLanes="2" speed="83.33" allow="vip" oneway="0"/>
    <type id="highway.residential" priority="4" numLanes="1" speed="13.89" disallow="tram rail_urban rail rail_electric ship" oneway="0"/>
    <type id="highway.secondary" priority="7" numLanes="2" speed="27.78" disallow="tram rail_urban rail rail_electric ship" oneway="0"/>
    <type id="highway.secondary_link" priority="6" numLanes="1" speed="22.22" disallow="tram rail_urban rail rail_electric ship" oneway="0"/>
    <type id="highway.service" priority="2" numLanes="1" speed="5.56" allow="delivery bicycle pedestrian" oneway="0"/>
    <type id="highway.services" priority="1" numLanes="1" speed="8.33" disallow="tram rail_urban rail rail_electric ship" oneway="0"/>
    <type id="highway.stairs" priority="1" numLanes="1" speed="1.39" allow="pedestrian" oneway="1" width="2.00"/>
    <type id="highway.step" priority="1" numLanes="1" speed="1.39" allow="pedestrian" oneway="1" width="2.00"/>
    <type id="highway.steps" priority="1" numLanes="1" speed="1.39" allow="pedestrian" oneway="1" width="2.00"/>
    <type id="highway.tertiary" priority="6" numLanes="1" speed="22.22" disallow="tram rail_urban rail rail_electric ship" oneway="0"/>
    <type id="highway.tertiary_link" priority="5" numLanes="1" speed="22.22" disallow="tram rail_urban rail rail_electric ship" oneway="0"/>
    <type id="highway.track" priority="1" numLanes="1" speed="5.56" disallow="tram rail_urban rail rail_electric ship" oneway="0"/>
    <type id="highway.trunk" priority="11" numLanes="2" speed="27.78" disallow="tram rail_urban rail rail_electric bicycle pedestrian ship" oneway="0"/>
    <type id="highway.trunk_link" priority="10" numLanes="1" speed="22.22" disallow="tram rail_urban rail rail_electric bicycle pedestrian ship" oneway="0"/>
    <type id="highway.unclassified" priority="5" numLanes="1" speed="13.89" disallow="tram rail_urban rail rail_electric ship" oneway="0"/>
    <type id="highway.unsurfaced" priority="1" numLanes="1" speed="8.33" disallow="tram rail_urban rail rail_electric ship" oneway="0"/>
    <type id="railway.light_rail" priority="15" numLanes="1" speed="27.78" allow="rail_urban" oneway="1"/>
    <type id="railway.preserved" priority="15" numLanes="1" speed="27.78" allow="rail" oneway="1"/>
    <type id="railway.rail" priority="15" numLanes="1" speed="83.33" allow="rail rail_electric" oneway="1"/>
    <type id="railway.subway" priority="15" numLanes="1" speed="27.78" allow="rail_urban" oneway="1"/>
    <type id="railway.tram" priority="15" numLanes="1" speed="13.89" allow="tram" oneway="1"/>

    <edge id=":1044975939_0" function="internal">
        <lane id=":1044975939_0_0" index="0" allow="private emergency authority army vip passenger hov taxi bus coach delivery truck trailer motorcycle evehicle custom1 custom2" speed="35.76" length="0.25" shape="28170.46,5636.31 28170.76,5636.29"/>
        <lane id=":1044975939_0_1" index="1" allow="private emergency authority army vip passenger hov taxi bus coach delivery truck trailer motorcycle evehicle custom1 custom2" speed="35.76" length="0.25" shape="28170.70,5639.60 28170.89,5639.59"/>
    </edge>
    <edge id=":1044975943_0" function="internal">
        <lane id=":1044975943_0_0" index="0" allow="private emergency authority army vip passenger hov taxi bus coach delivery truck trailer motorcycle evehicle custom1 custom2" speed="35.76" length="0.30" shape="10187.29,3697.13 10187.47,3697.37"/>
        <lane id=":1044975943_0_1" index="1" allow="private emergency authority army vip passenger hov taxi bus coach delivery truck trailer motorcycle evehicle custom1 custom2" speed="35.76" length="0.30" shape="10184.67,3699.14 10184.85,3699.37"/>
    </edge>
    <edge id=":1044975969_0" function="internal">
        <lane id=":1044975969_0_0" index="0" allow="private emergency authority army vip passenger hov taxi bus coach delivery truck trailer motorcycle evehicle custom1 custom2" speed="35.76" length="0.30" shape="2515.58,762.91 2515.31,763.04"/>
        <lane id=":1044975969_0_1" index="1" allow="private emergency authority army vip passenger hov taxi bus coach delivery truck trailer motorcycle evehicle custom1 custom2" speed="35.76" length="0.30" shape="2514.20,759.92 2513.93,760.04"/>
    </edge>
    <edge id=":1044975999_0" function="internal">
        <lane id=":1044975999_0_0" index="0" allow="private emergency authority army vip passenger hov taxi bus coach delivery truck trailer motorcycle evehicle custom1 custom2" speed="35.76" length="0.29" shape="28184.65,5635.73 28184.93,5635.72"/>
        <lane id=":1044975999_0_1" index="1" allow="private emergency authority army vip passenger hov taxi bus coach delivery truck trailer motorcycle evehicle custom1 custom2" speed="35.76" length="0.29" shape="28184.78,5639.03 28185.09,5639.01"/>
    </edge>
    <edge id=":1044976074_0" function="internal">
        <lane id=":1044976074_0_0" index="0" allow="private emergency authority army vip passenger hov taxi bus coach delivery truck trailer motorcycle evehicle custom1 custom2" speed="35.76" length="0.28" shape="2470.30,755.88 2470.59,755.75"/>
        <lane id=":1044976074_0_1" index="1" allow="private emergency authority army vip passenger hov taxi bus coach delivery truck trailer motorcycle evehicle custom1 custom2" speed="35.76" length="0.28" shape="2471.68,758.88 2471.91,758.78"/>
    </edge>
    <edge id=":1044976100_0" function="internal">
        <lane id=":1044976100_0_0" index="0" allow="private emergency authority army vip passenger hov taxi bus coach delivery truck trailer motorcycle evehicle custom1 custom2" speed="35.76" length="0.28" shape="2506.21,740.15 2506.44,740.05"/>
        <lane id=":1044976100_0_1" index="1" allow="private emergency authority army vip passenger hov taxi bus coach delivery truck trailer motorcycle evehicle custom1 custom2" speed="35.76" length="0.28" shape="2507.54,743.18 2507.82,743.05"/>
    </edge>
    <edge id=":1044976140_0" function="internal">
        <lane id=":1044976140_0_0" index="0" allow="private emergency authority army vip passenger hov taxi bus coach delivery truck trailer motorcycle evehicle custom1 custom2" speed="35.76" length="0.30" shape="28182.78,5659.95 28182.49,5659.98"/>
        <lane id=":1044976140_0_1" index="1" allow="private emergency authority army vip passenger hov taxi bus coach delivery truck trailer motorcycle evehicle custom1 custom2" speed="35.76" length="0.30" shape="28182.53,5656.66 28182.23,5656.69"/>
    </edge>
    <edge id=":1044976325_0" function="internal">
        <lane id=":1044976325_0_0" index="0" allow="private emergency authority army vip passenger hov taxi bus coach delivery truck trailer motorcycle evehicle custom1 custom2" speed="35.76" length="0.30" shape="28167.86,5661.14 28167.56,5661.16"/>
        <lane id=":1044976325_0_1" index="1" allow="private emergency authority army vip passenger hov taxi bus coach delivery truck trailer motorcycle evehicle custom1 custom2" speed="35.76" length="0.30" shape="28167.60,5657.85 28167.31,5657.87"/>
    </edge>
    <edge id=":1044976379_0" function="internal">
        <lane id=":1044976379_0_0" index="0" allow="private emergency authority army vip passenger hov taxi bus coach delivery truck trailer motorcycle evehicle custom1 custom2" speed="35.76" length="0.30" shape="10144.14,3680.77 10143.96,3680.53"/>
        <lane id=":1044976379_0_1" index="1" allow="private emergency authority army vip passenger hov taxi bus coach delivery truck trailer motorcycle evehicle custom1 custom2" speed="35.76" length="0.30" shape="10146.77,3678.78 10146.59,3678.54"/>
    </edge>
    <edge id=":1044976564_0" function="internal">
        <lane id=":1044976564_0_0" index="0" allow="private emergency authority army vip passenger hov taxi bus coach delivery truck trailer motorcycle evehicle custom1 custom2" speed="35.76" length="0.10" shape="2482.67,778.05 2482.67,778.05"/>
        <lane id=":1044976564_0_1" index="1" allow="private emergency authority army vip passenger hov taxi bus coach delivery truck trailer motorcycle evehicle custom1 custom2" speed="35.76" length="0.10" shape="2481.29,775.05 2481.29,775.05"/>
    </edge>
    <edge id=":1045868971_0" function="internal">
        <lane id=":1045868971_0_0" index="0" allow="private emergency authority army vip passenger hov taxi bus coach delivery truck trailer motorcycle evehicle custom1 custom2" speed="35.76" length="0.30" shape="39678.48,12721.46 39678.75,12721.55"/>
        <lane id=":1045868971_0_1" index="1" allow="private emergency authority army vip passenger hov taxi bus coach delivery truck trailer motorcycle evehicle custom1 custom2" speed="35.76" length="0.30" shape="39677.47,12724.60 39677.77,12724.70"/>
    </edge>
    <edge id=":1045869405_0" function="internal">
        <lane id=":1045869405_0_0" index="0" allow="private emergency authority army vip passenger hov taxi bus coach delivery truck trailer motorcycle evehicle custom1 custom2" speed="35.76" length="0.30" shape="39701.78,12728.76 39702.08,12728.85"/>
        <lane id=":1045869405_0_1" index="1" allow="private emergency authority army vip passenger hov taxi bus coach delivery truck trailer motorcycle evehicle custom1 custom2" speed="35.76" length="0.30" shape="39700.79,12731.91 39701.07,12731.99"/>
    </edge>
    <edge id=":1081963128_0" function="internal">
        <lane id=":1081963128_0_0" index="0" disallow="tram rail_urban rail rail_electric ship" speed="31.29" length="0.20" shape="81697.94,157436.59 81697.77,157436.49"/>
    </edge>
    <edge id=":1081963128_1" function="internal">
        <lane id=":1081963128_1_0" index="0" disallow="tram rail_urban rail rail_electric ship" speed="31.29" length="2.41" shape="81697.94,157436.59 81697.33,157435.23 81697.43,157434.32"/>
    </edge>
    <edge id=":1081963128_4" function="internal">
        <lane id=":1081963128_4_0" index="0" speed="31.29" length="2.41" shape="81697.43,157434.32 81698.22,157433.84 81699.70,157433.81"/>
    </edge>
    <edge id=":1081963128_2" function="internal">
        <lane id=":1081963128_2_0" index="0" disallow="tram rail_urban rail rail_electric ship" speed="31.29" length="0.30" shape="81699.45,157433.65 81699.70,157433.81"/>
    </edge>
    <edge id=":1081963128_3" function="internal">
        <lane id=":1081963128_3_0" index="0" disallow="tram rail_urban rail rail_electric ship" speed="31.29" length="2.41" shape="81699.45,157433.65 81700.09,157434.99 81700.03,157435.91"/>
    </edge>
    <edge id=":1081963128_5" function="internal">
        <lane id=":1081963128_5_0" index="0" speed="31.29" length="2.41" shape="81700.03,157435.91 81699.26,157436.41 81697.77,157436.49"/>
    </edge>
    <edge id=":1103894775_0" function="internal">
        <lane id=":1103894775_0_0" index="0" disallow="tram rail_urban rail rail_electric ship" speed="27.78" length="0.24" shape="299970.64,288902.21 299970.58,288902.42"/>
        <lane id=":1103894775_0_1" index="1" disallow="tram rail_urban rail rail_electric ship" speed="27.78" length="0.24" shape="299967.47,288901.29 299967.40,288901.55"/>
    </edge>
    <edge id=":1103894775_2" function="internal">
        <lane id=":1103894775_2_0" index="0" disallow="tram rail_urban rail rail_electric ship" speed="27.78" length="2.41" shape="299967.47,288901.29 299966.33,288902.25 299965.42,288902.42"/>
    </edge>
    <edge id=":1103894775_6" function="internal">
        <lane id=":1103894775_6_0" index="0" speed="27.78" length="2.41" shape="299965.42,288902.42 299964.75,288901.79 299964.30,288900.38"/>
    </edge>
    <edge id=":1103894775_3" function="internal">
        <lane id=":1103894775_3_0" index="0" disallow="tram rail_urban rail rail_electric ship" speed="27.78" length="0.34" shape="299961.03,288899.81 299961.13,288899.46"/>
        <lane id=":1103894775_3_1" index="1" disallow="tram rail_urban rail rail_electric ship" speed="27.78" length="0.34" shape="299964.21,288900.68 299964.30,288900.38"/>
    </edge>
    <edge id=":1103894775_5" function="internal">
        <lane id=":1103894775_5_0" index="0" disallow="tram rail_urban rail rail_electric ship" speed="27.78" length="2.41" shape="299964.21,288900.68 299965.33,288899.70 299966.24,288899.52"/>
    </edge>
    <edge id=":1103894775_7" function="internal">
        <lane id=":1103894775_7_0" index="0" speed="27.78" length="2.41" shape="299966.24,288899.52 299966.93,288900.14 299967.40,288901.55"/>
    </edge>
    <edge id=":1144780331_0" function="internal">
        <lane id=":1144780331_0_0" index="0" disallow="tram rail_urban rail rail_electric ship" speed="31.29" length="0.10" shape="74578.44,151291.23 74578.44,151291.23"/>
    </edge>
    <edge id=":1144780331_1" function="internal">
        <lane id=":1144780331_1_0" index="0" disallow="tram rail_urban rail rail_electric ship" speed="31.29" length="2.41" shape="74578.44,151291.23 74577.96,151289.83 74578.13,151288.92"/>
    </edge>
    <edge id=":1144780331_4" function="internal">
        <lane id=":1144780331_4_0" index="0" speed="31.29" length="2.41" shape="74578.13,151288.92 74578.96,151288.52 74580.45,151288.61"/>
    </edge>
    <edge id=":1144780331_2" function="internal">
        <lane id=":1144780331_2_0" index="0" disallow="tram rail_urban rail rail_electric ship" speed="31.29" length="0.10" shape="74580.45,151288.61 74580.45,151288.61"/>
    </edge>
    <edge id=":1144780331_3" function="internal">
        <lane id=":1144780331_3_0" index="0" disallow="tram rail_urban rail rail_electric ship" speed="31.29" length="2.41" shape="74580.45,151288.61 74580.93,151290.02 74580.75,151290.93"/>
    </edge>
    <edge id=":1144780331_5" function="internal">
        <lane id=":1144780331_5_0" index="0" speed="31.29" length="2.41" shape="74580.75,151290.93 74579.92,151291.33 74578.44,151291.23"/>
    </edge>
    <edge id=":1146035350_0" function="internal">
        <lane id=":1146035350_0_0" index="0" disallow="tram rail_urban rail rail_electric ship" speed="31.29" length="0.10" shape="79827.91,156281.92 79827.91,156281.92"/>
    </edge>
    <edge id=":1146035350_1" function="internal">
        <lane id=":1146035350_1_0" index="0" disallow="tram rail_urban rail rail_electric ship" speed="31.29" length="2.41" shape="79827.91,156281.92 79827.27,156280.58 79827.34,156279.66"/>
    </edge>
    <edge id=":1146035350_4" function="internal">
        <lane id=":1146035350_4_0" index="0" speed="31.29" length="2.41" shape="79827.34,156279.66 79828.12,156279.16 79829.61,156279.09"/>
    </edge>
    <edge id=":1146035350_2" function="internal">
        <lane id=":1146035350_2_0" index="0" disallow="tram rail_urban rail rail_electric ship" speed="31.29" length="0.10" shape="79829.61,156279.09 79829.61,156279.09"/>
    </edge>
    <edge id=":1146035350_3" function="internal">
        <lane id=":1146035350_3_0" index="0" disallow="tram rail_urban rail rail_electric ship" speed="31.29" length="2.41" shape="79829.61,156279.09 79830.24,156280.44 79830.17,156281.36"/>
    </edge>
    <edge id=":1146035350_5" function="internal">
        <lane id=":1146035350_5_0" index="0" speed="31.29" length="2.41" shape="79830.17,156281.36 79829.39,156281.85 79827.91,156281.92"/>
    </edge>
    <edge id=":1529004609_0" function="internal">
        <lane id=":1529004609_0_0" index="0" disallow="tram rail_urban rail rail_electric ship" speed="27.78" length="0.31" shape="54605.30,24243.98 54605.30,24243.68"/>
    </edge>
    <edge id=":1529004609_1" function="internal">
        <lane id=":1529004609_1_0" index="0" disallow="tram rail_urban rail rail_electric ship" speed="27.78" length="2.41" shape="54605.30,24243.98 54606.09,24242.72 54606.90,24242.28"/>
    </edge>
    <edge id=":1529004609_4" function="internal">
        <lane id=":1529004609_4_0" index="0" speed="27.78" length="2.41" shape="54606.90,24242.28 54607.74,24242.67 54608.60,24243.88"/>
    </edge>
    <edge id=":1529004609_2" function="internal">
        <lane id=":1529004609_2_0" index="0" disallow="tram rail_urban rail rail_electric ship" speed="27.78" length="0.21" shape="54608.60,24243.67 54608.60,24243.88"/>
    </edge>
    <edge id=":1529004609_3" function="internal">
        <lane id=":1529004609_3_0" index="0" disallow="tram rail_urban rail rail_electric ship" speed="27.78" length="2.41" shape="54608.60,24243.67 54607.78,24244.91 54606.95,24245.32"/>
    </edge>
    <edge id=":1529004609_5" function="internal">
        <lane id=":1529004609_5_0" index="0" speed="27.78" length="2.41" shape="54606.95,24245.32 54606.13,24244.91 54605.30,24243.68"/>
    </edge>
    <edge id=":2029639227_0" function="internal">
        <lane id=":2029639227_0_0" index="0" disallow="tram rail_urban rail rail_electric ship" speed="31.29" length="0.31" shape="284774.40,195616.04 284774.10,195615.94"/>
        <lane id=":2029639227_0_1" index="1" disallow="tram rail_urban rail rail_electric ship" speed="31.29" length="0.31" shape="284775.47,195612.92 284775.18,195612.82"/>
    </edge>
    <edge id=":2029639227_2" function="internal">
        <lane id=":2029639227_2_0" index="0" disallow="tram rail_urban rail rail_electric ship" speed="31.29" length="2.41" shape="284775.47,195612.92 284774.56,195611.74 284774.44,195610.83"/>
    </edge>
    <edge id=":2029639227_6" function="internal">
        <lane id=":2029639227_6_0" index="0" speed="31.29" length="2.41" shape="284774.44,195610.83 284775.10,195610.18 284776.53,195609.80"/>
    </edge>
    <edge id=":2029639227_3" function="internal">
        <lane id=":2029639227_3_0" index="0" disallow="tram rail_urban rail rail_electric ship" speed="31.29" length="0.29" shape="284777.33,195606.58 284777.60,195606.67"/>
        <lane id=":2029639227_3_1" index="1" disallow="tram rail_urban rail rail_electric ship" speed="31.29" length="0.29" shape="284776.26,195609.70 284776.53,195609.80"/>
    </edge>
    <edge id=":2029639227_5" function="internal">
        <lane id=":2029639227_5_0" index="0" disallow="tram rail_urban rail rail_electric ship" speed="31.29" length="2.41" shape="284776.26,195609.70 284777.16,195610.89 284777.28,195611.80"/>
    </edge>
    <edge id=":2029639227_7" function="internal">
        <lane id=":2029639227_7_0" index="0" speed="31.29" length="2.41" shape="284777.28,195611.80 284776.62,195612.45 284775.18,195612.82"/>
    </edge>
    <edge id=":2276965844_0" function="internal">
        <lane id=":2276965844_0_0" index="0" disallow="tram rail_urban rail rail_electric ship" speed="27.78" length="0.34" shape="318887.71,274489.30 318887.34,274489.35"/>
        <lane id=":2276965844_0_1" index="1" disallow="tram rail_urban rail rail_electric ship" speed="27.78" length="0.34" shape="318887.17,274486.04 318886.86,274486.09"/>
    </edge>
    <edge id=":2276965844_2" function="internal">
        <lane id=":2276965844_2_0" index="0" disallow="tram rail_urban rail rail_electric ship" speed="27.78" length="2.41" shape="318887.17,274486.04 318885.81,274485.43 318885.27,274484.68"/>
    </edge>
    <edge id=":2276965844_6" function="internal">
        <lane id=":2276965844_6_0" index="0" speed="27.78" length="2.41" shape="318885.27,274484.68 318885.54,274483.80 318886.63,274482.79"/>
    </edge>
    <edge id=":2276965844_3" function="internal">
        <lane id=":2276965844_3_0" index="0" disallow="tram rail_urban rail rail_electric ship" speed="27.78" length="0.22" shape="318885.90,274479.56 318886.09,274479.53"/>
        <lane id=":2276965844_3_1" index="1" disallow="tram rail_urban rail rail_electric ship" speed="27.78" length="0.22" shape="318886.38,274482.82 318886.63,274482.79"/>
    </edge>
    <edge id=":2276965844_5" function="internal">
        <lane id=":2276965844_5_0" index="0" disallow="tram rail_urban rail rail_electric ship" speed="27.78" length="2.41" shape="318886.38,274482.82 318887.72,274483.46 318888.25,274484.22"/>
    </edge>
    <edge id=":2276965844_7" function="internal">
        <lane id=":2276965844_7_0" index="0" speed="27.78" length="2.41" shape="318888.25,274484.22 318887.97,274485.09 318886.86,274486.09"/>
    </edge>
    <edge id=":2340207468_0" function="internal">
        <lane id=":2340207468_0_0" index="0" disallow="tram rail_urban rail rail_electric ship" speed="27.78" length="0.32" shape="336492.45,206837.45 336492.39,206837.14"/>
        <lane id=":2340207468_0_1" index="1" disallow="tram rail_urban rail rail_electric ship" speed="27.78" length="0.32" shape="336495.69,206836.78 336495.62,206836.48"/>
    </edge>
    <edge id=":2340207468_2" function="internal">
        <lane id=":2340207468_2_0" index="0" disallow="tram rail_urban rail rail_electric ship" speed="27.78" length="2.41" shape="336495.69,206836.78 336496.24,206835.40 336496.97,206834.83"/>
    </edge>
    <edge id=":2340207468_6" function="internal">
        <lane id=":2340207468_6_0" index="0" speed="27.78" length="2.41" shape="336496.97,206834.83 336497.86,206835.07 336498.92,206836.11"/>
    </edge>
    <edge id=":2340207468_3" function="internal">
        <lane id=":2340207468_3_0" index="0" disallow="tram rail_urban rail rail_electric ship" speed="27.78" length="0.28" shape="336502.09,206835.18 336502.15,206835.45"/>
        <lane id=":2340207468_3_1" index="1" disallow="tram rail_urban rail rail_electric ship" speed="27.78" length="0.28" shape="336498.86,206835.83 336498.92,206836.11"/>
    </edge>
    <edge id=":2340207468_5" function="internal">
        <lane id=":2340207468_5_0" index="0" disallow="tram rail_urban rail rail_electric ship" speed="27.78" length="2.41" shape="336498.86,206835.83 336498.30,206837.21 336497.57,206837.77"/>
    </edge>
    <edge id=":2340207468_7" function="internal">
        <lane id=":2340207468_7_0" index="0" speed="27.78" length="2.41" shape="336497.57,206837.77 336496.68,206837.53 336495.62,206836.48"/>
    </edge>
    <edge id=":2360474249_0" function="internal">
        <lane id=":2360474249_0_0" index="0" disallow="tram rail_urban rail rail_electric ship" speed="27.78" length="0.35" shape="336977.10,221556.50 336977.04,221556.12"/>
        <lane id=":2360474249_0_1" index="1" disallow="tram rail_urban rail rail_electric ship" speed="27.78" length="0.35" shape="336980.36,221555.96 336980.31,221555.66"/>
    </edge>
    <edge id=":2360474249_2" function="internal">
        <lane id=":2360474249_2_0" index="0" disallow="tram rail_urban rail rail_electric ship" speed="27.78" length="2.41" shape="336980.36,221555.96 336980.97,221554.61 336981.72,221554.07"/>
    </edge>
    <edge id=":2360474249_6" function="internal">
        <lane id=":2360474249_6_0" index="0" speed="27.78" length="2.41" shape="336981.72,221554.07 336982.60,221554.34 336983.61,221555.42"/>
    </edge>
    <edge id=":2360474249_3" function="internal">
        <lane id=":2360474249_3_0" index="0" disallow="tram rail_urban rail rail_electric ship" speed="27.78" length="0.19" shape="336986.85,221554.73 336986.87,221554.88"/>
        <lane id=":2360474249_3_1" index="1" disallow="tram rail_urban rail rail_electric ship" speed="27.78" length="0.19" shape="336983.58,221555.19 336983.61,221555.42"/>
    </edge>
    <edge id=":2360474249_5" function="internal">
        <lane id=":2360474249_5_0" index="0" disallow="tram rail_urban rail rail_electric ship" speed="27.78" length="2.41" shape="336983.58,221555.19 336982.93,221556.53 336982.17,221557.06"/>
    </edge>
    <edge id=":2360474249_7" function="internal">
        <lane id=":2360474249_7_0" index="0" speed="27.78" length="2.41" shape="336982.17,221557.06 336981.30,221556.77 336980.31,221555.66"/>
    </edge>
    <edge id=":2360474251_0" function="internal">
        <lane id=":2360474251_0_0" index="0" disallow="tram rail_urban rail rail_electric ship" speed="27.78" length="0.31" shape="336985.17,221605.23 336985.12,221604.92"/>
        <lane id=":2360474251_0_1" index="1" disallow="tram rail_urban rail rail_electric ship" speed="27.78" length="0.31" shape="336988.42,221604.68 336988.37,221604.38"/>
    </edge>
    <edge id=":2360474251_2" function="internal">
        <lane id=":2360474251_2_0" index="0" disallow="tram rail_urban rail rail_electric ship" speed="27.78" length="2.41" shape="336988.42,221604.68 336989.03,221603.32 336989.78,221602.78"/>
    </edge>
    <edge id=":2360474251_6" function="internal">
        <lane id=":2360474251_6_0" index="0" speed="27.78" length="2.41" shape="336989.78,221602.78 336990.66,221603.05 336991.68,221604.13"/>
    </edge>
    <edge id=":2360474251_3" function="internal">
        <lane id=":2360474251_3_0" index="0" disallow="tram rail_urban rail rail_electric ship" speed="27.78" length="0.29" shape="336994.89,221603.30 336994.93,221603.59"/>
        <lane id=":2360474251_3_1" index="1" disallow="tram rail_urban rail rail_electric ship" speed="27.78" length="0.29" shape="336991.63,221603.84 336991.68,221604.13"/>
    </edge>
    <edge id=":2360474251_5" function="internal">
        <lane id=":2360474251_5_0" index="0" disallow="tram rail_urban rail rail_electric ship" speed="27.78" length="2.41" shape="336991.63,221603.84 336991.02,221605.20 336990.27,221605.74"/>
    </edge>
    <edge id=":2360474251_7" function="internal">
        <lane id=":2360474251_7_0" index="0" speed="27.78" length="2.41" shape="336990.27,221605.74 336989.39,221605.47 336988.37,221604.38"/>
    </edge>
    <edge id=":3136625760_0" function="internal">
        <lane id=":3136625760_0_0" index="0" disallow="tram rail_urban rail rail_electric ship" speed="11.18" length="0.30" shape="92125.24,159370.42 92125.03,159370.20"/>
    </edge>
    <edge id=":3136625760_1" function="internal">
        <lane id=":3136625760_1_0" index="0" disallow="tram rail_urban rail rail_electric ship" speed="11.18" length="2.41" shape="92125.24,159370.42 92124.99,159368.95 92125.30,159368.09"/>
    </edge>
    <edge id=":3136625760_4" function="internal">
        <lane id=":3136625760_4_0" index="0" speed="11.18" length="2.41" shape="92125.30,159368.09 92126.19,159367.82 92127.64,159368.15"/>
    </edge>
    <edge id=":3136625760_2" function="internal">
        <lane id=":3136625760_2_0" index="0" disallow="tram rail_urban rail rail_electric ship" speed="11.18" length="0.30" shape="92127.43,159367.94 92127.64,159368.15"/>
    </edge>
    <edge id=":3136625760_3" function="internal">
        <lane id=":3136625760_3_0" index="0" disallow="tram rail_urban rail rail_electric ship" speed="11.18" length="2.41" shape="92127.43,159367.94 92127.68,159369.40 92127.36,159370.27"/>
    </edge>
    <edge id=":3136625760_5" function="internal">
        <lane id=":3136625760_5_0" index="0" speed="11.18" length="2.41" shape="92127.36,159370.27 92126.48,159370.53 92125.03,159370.20"/>
    </edge>
    <edge id=":3136625761_0" function="internal">
        <lane id=":3136625761_0_0" index="0" disallow="tram rail_urban rail rail_electric ship" speed="11.18" length="0.31" shape="92132.68,159378.28 92132.47,159378.06"/>
    </edge>
    <edge id=":3136625761_1" function="internal">
        <lane id=":3136625761_1_0" index="0" disallow="tram rail_urban rail rail_electric ship" speed="11.18" length="2.41" shape="92132.68,159378.28 92132.39,159376.82 92132.68,159375.95"/>
    </edge>
    <edge id=":3136625761_4" function="internal">