<?xml version="1.0" encoding="UTF-8"?>

<!-- generated on Sun Jul  9 17:15:12 2017 by SUMO duarouter Version 0.30.0
<?xml version="1.0" encoding="UTF-8"?>

<configuration xmlns:xsi="http://www.w3.org/2001/XMLSchema-instance" xsi:noNamespaceSchemaLocation="http://sumo.dlr.de/xsd/duarouterConfiguration.xsd">

    <input>
        <net-file value="/home/theinecke/Downloads/bozeman.net.xml"/>
        <trip-files value="trips.trips.xml"/>
    </input>

    <output>
        <output-file value="bozeman.rou.xml"/>
    </output>

    <processing>
        <ignore-errors value="true"/>
    </processing>

    <time>
        <begin value="0"/>
        <end value="100.0"/>
    </time>

    <report>
        <no-warnings value="true"/>
        <no-step-log value="true"/>
    </report>

</configuration>
-->

<routes xmlns:xsi="http://www.w3.org/2001/XMLSchema-instance" xsi:noNamespaceSchemaLocation="http://sumo.dlr.de/xsd/routes_file.xsd">
    <vehicle id="0" depart="0.00">
        <route edges="-5542426 -5556815#2 -5556815#1 -5556815#0 -5543686#4 -5554818#5 -5554818#4 26404712#3 26404712#4 26404712#5 -5543965#2 -5543965#1 -5543965#0 5553904#4 5553904#5 5553904#6 5553904#7 5553904#8 5553904#9 5553904#10 -5542667#8 -5542667#7 -5557743#5 -5557743#4 -5557743#3 -5557743#2 -5557743#1 -5551845#6 -5551845#5 -5551845#4 -5551845#3 -5551845#2 -5551845#1 5551845#1"/>
    </vehicle>
    <vehicle id="1" depart="1.00">
        <route edges="-26404712#2 26404712#2 26404712#3 26404712#4 26404712#5 -5543965#2 -5543965#1 -5543965#0 5553904#4 5553904#5 5553904#6 5553904#7 5553904#8 5553904#9 5553904#10 -5542667#8 -5542667#7 -5557743#5 -5557743#4 -5557743#3 5558835#2 -5558835#2"/>
    </vehicle>
    <vehicle id="2" depart="2.00">
        <route edges="5546653#4 -5546653#4 -5546653#3 5558981#2 5546953#0 5546953#1 5556681 -5553904#4 5543965#0 5543965#1 5543965#2 -26404712#5 -26404712#4 -26404712#3 -26404712#2 -26404712#1 26404712#1"/>
    </vehicle>
    <vehicle id="3" depart="3.00">
        <route edges="-5553031#6 5553031#6 -5557007#9 -5557007#8 -5557007#7 -5557007#6"/>
    </vehicle>
    <vehicle id="4" depart="4.00">
        <route edges="-5532886#2 -5557743#4 -5557743#3 -5557743#2 -5557743#1 -5551845#6 -5551845#5 -5551845#4 -5551845#3 -321513444#2"/>
    </vehicle>
    <vehicle id="5" depart="5.00">
        <route edges="5553970#0 5555000#2 5555000#3 -5553664#7 -5553664#6 -5553664#5 -5553664#4 5549828#0 -5559415#3 -5559415#2 -5559415#1 -5559415#0 -5557743#8 -5557743#7 -5557743#6 -5557743#5 -5557743#4 -5557743#3 -5557743#2 -5557743#1 -5557743#0"/>
    </vehicle>
    <vehicle id="6" depart="6.00">
        <route edges="5557743#3 -5557743#3 -5557743#2 5549904#2 5549904#3 5549904#4 5549904#5 5549904#6 5549904#7 5549904#8"/>
    </vehicle>
    <vehicle id="7" depart="7.00">
        <route edges="-5542674#6 -5542674#5 -5558034#1 -5544999#0 5554818#3 5554818#4 5554818#5 5554818#6 5554818#7 5554818#8 5554818#9 5555607#2 5555607#3"/>
    </vehicle>
    <vehicle id="8" depart="8.00">
        <route edges="321513444#2 -5551845#2 5558349#1 5558349#2 5558349#3 5558349#4 5558349#5 5558349#6 5558349#7 5558349#8 5558349#9 5558349#10 5558349#11 5558349#12 28897989#2 -5546306 5550020#5 5553031#0 5553031#1 5559910#4"/>
    </vehicle>
    <vehicle id="9" depart="9.00">
        <route edges="-28897919#2 -28897919#1 -28897919#0 -26404712#3 -5554818#3 5544999#0 5544999#1"/>
    </vehicle>
    <vehicle id="10" depart="10.00">
        <route edges="-5542667#4 5542667#4 5542667#5 5542667#6 5557743#6 28897989#7 28897989#8 5555990#0 5555990#1 5555990#2 5543965#1 5543965#2 -26404712#5 -26404712#4 -26404712#3 -26404712#2 26404712#2"/>
    </vehicle>
    <vehicle id="11" depart="11.00">
        <route edges="-321513444#5 -5558835#5 -5558835#4 -5558835#3 -5558835#2 5557743#3 5557743#4 5557743#5 5557743#6 5557743#7 5557743#8 5559415#0 5559415#1 5559415#2 5559415#3 -5549828#0 5553664#4 5553664#5 5553664#6 5553664#7 -5555000#3 -5555000#2 -5555000#1"/>
    </vehicle>
    <vehicle id="12" depart="12.00">
        <route edges="5545967#0 5560429#7 5560429#8 -5532886#7 5558349#9 5558349#10 5558349#11 5558349#12 28897989#2 -5546306 5550020#5"/>
    </vehicle>
    <vehicle id="13" depart="13.00">
        <route edges="-5545967#7 5557743#4 5557743#5 5557743#6 5557743#7 5557743#8 5559415#0 5559415#1 5559415#2 5559415#3 5559415#4 5559097#1 5559097#2 5559097#3 5559097#4 5559097#5 5559097#6"/>
    </vehicle>
    <vehicle id="14" depart="14.00">
        <route edges="5556814 5550798#1 5550798#2 -5554818#8 -5554818#7 -5554818#6 -5554818#5 -5554818#4 26404712#3 26404712#4 26404712#5 -5543965#2 -5543965#1 -5543965#0 5553904#4 5553904#5 5553904#6 5553904#7 5553904#8 5553904#9 5553904#10 -5542667#8 -5542667#7 -5557743#5 -5557743#4 -5557743#3 -5557743#2 -5557743#1 -5551845#6 -5551845#5 -5551845#4 -5551845#3 -5551845#2 -5551845#1 5560429#1"/>
    </vehicle>
    <vehicle id="15" depart="15.00">
        <route edges="-5560429#1 5551845#1 5551845#2 5551845#3 5551845#4 5551845#5 5551845#6 5557743#1 5557743#2 5557743#3 5557743#4 5557743#5 5557743#6 28897989#7 28897989#8 5555990#0 5555990#1 5555990#2 5555990#3 5555990#4 5555990#5 5555990#6 5554419#5 5554419#6 -28658381#3 28658381#3"/>
    </vehicle>
    <vehicle id="16" depart="16.00">
        <route edges="-5555922#2 -28897919#1 -28897919#0 26404712#4 26404712#5 -5543965#2 -5543965#1 -5543965#0 5553904#4 5553904#5 5553904#6 5553904#7 5553904#8 5553904#9 5553904#10 -5542667#8 -5542667#7 -5542667#6 -5542667#5"/>
    </vehicle>
    <vehicle id="17" depart="17.00">
        <route edges="5558563 -5558563 257403079#1 257403079#2 5546653#4 5546653#5 5556091#7 5549904#0 5549904#1 5549904#2 5549904#3 447727596#2"/>
    </vehicle>
    <vehicle id="18" depart="18.00">
        <route edges="-5556091#5 -5556091#4 -5556091#3 -5553904#10 -5553904#9 -5553904#8 -5553904#7 -5553904#6 -5553904#5 -5553904#4 5543965#0 5543965#1 5543965#2 -26404712#5 -26404712#4 -26404712#3 5554818#4 5554818#5 5554818#6 5554818#7 5554818#8 -5550798#2 -5550798#1 -5550798#0"/>
    </vehicle>
    <vehicle id="19" depart="19.00">
        <route edges="5555990#2 -5543965#0 5553904#4 5553904#5 5553904#6 5553904#7 5553904#8 5553904#9 5553904#10 -5542667#8 -5542667#7 -5557743#5 -5557743#4 -5557743#3 -5557743#2 -5557743#1 -5551845#6 -5551845#5 -447727596#0 447727596#0"/>
    </vehicle>
    <vehicle id="20" depart="20.00">
        <route edges="-5545967#1 5545967#1 5545967#2 5545967#3 5545967#4 5545967#5 5545967#6 5557743#4 5557743#5 5557743#6 28897989#7 28897989#8 5555990#0 5555990#1 5555990#2 5543965#1 5543965#2 28658381#6"/>
    </vehicle>
    <vehicle id="21" depart="21.00">
        <route edges="-5560433#0 28897989#1 28897989#2 28897989#3 28897989#4 28897989#5 28897989#6 -5557743#6 -5557743#5 -5557743#4 5545967#7 5545967#8 5556091#5"/>
    </vehicle>
    <vehicle id="22" depart="22.00">
        <route edges="-5554419#4 5553904#0 5553904#1 -5542394#6 -5542394#5 -5542394#4 -5542394#3 -5542394#2 -5542394#1 -5542394#0"/>
    </vehicle>
    <vehicle id="24" depart="24.00">
        <route edges="447727596#0 5551845#5 5551845#6 5557743#1 5557743#2 5557743#3 5557743#4 -5532886#1 -5532886#0 -5556091#3"/>
    </vehicle>
    <vehicle id="25" depart="25.00">
        <route edges="5545967#5 -5545967#5 -5545967#4 -5545967#3 -5545967#2 -5545967#1 -5560429#6 -5560429#5"/>
    </vehicle>
    <vehicle id="26" depart="26.00">
        <route edges="5543965#1 -5543965#1 -5543965#0 5553904#4 5553904#5 5553904#6 5553904#7 5553904#8 5553904#9 5553904#10 -5542667#8 -5542667#7 -5557743#5 -5557743#4 -5557743#3 -5557743#2 -5557743#1 -5551845#6 -5551845#5 -447727596#0 321513444#2"/>
    </vehicle>
    <vehicle id="27" depart="27.00">
        <route edges="5558981#4 -5558981#4 5553904#7 5553904#8 5553904#9 5553904#10 -5542667#8 -5542667#7 -5557743#5 -5557743#4 -5557743#3 -5557743#2 5549904#2 5549904#3 5549904#4 5549904#5 5549904#6 -5558349#2"/>
    </vehicle>
    <vehicle id="28" depart="28.00">
        <route edges="5551845#0 5551845#1 5551845#2 5551845#3 5551845#4 5551845#5 5551845#6 5557743#1 5557743#2 5557743#3 5557743#4 5557743#5 5557743#6 5557743#7 5557743#8 5559415#0 5559415#1 5559415#2 5559415#3 -5549828#0 5553664#4 5554818#0 -5553970#3 -5558034#3 -5558034#2 -5558034#1 5544999#1"/>
    </vehicle>
    <vehicle id="29" depart="29.00">
        <route edges="-5557261#6 -5557261#5 -5559097#2 -5559097#1 -5559415#4 -5559415#3 -5559415#2 -5559415#1 -5559415#0 -5557743#8 -5557743#7 -5557743#6 -5557743#5 -5557743#4 -5557743#3 -5557743#2 -5557743#1 -5551845#6 -5551845#5 -5551845#4 -5551845#3 -5551845#2 -5551845#1 -5551845#0"/>
    </vehicle>
    <vehicle id="30" depart="30.00">
        <route edges="5557743#4 5557743#5 5557743#6 28897989#7 28897989#8 5555990#0 5555990#1 5555990#2 5543965#1 5543965#2 -26404712#5 -26404712#4 -26404712#3 26404712#3"/>
    </vehicle>
    <vehicle id="31" depart="31.00">
        <route edges="5550798#0 5550798#1 5550798#2 -5554818#8 -5554818#7 -5554818#6 -5554818#5 -5554818#4 26404712#3 26404712#4 26404712#5 -5543965#2 -5543965#1 -5543965#0 5553904#4 5553904#5 5553904#6 5553904#7 5553904#8 5553904#9 5553904#10 -5542667#8 -5542667#7 -5557743#5 -5557743#4 -5557743#3 -5557743#2 -5557743#1 -5551845#6 -5551845#5 -447727596#0 447727596#0"/>
    </vehicle>
    <vehicle id="32" depart="32.00">
        <route edges="-5554818#0 5554818#0 5554818#1 5554818#2 5554818#3 26404712#3 26404712#4 26404712#5 -5543965#2 -5543965#1 5555990#3 5555990#4 -5542394#7"/>
    </vehicle>
    <vehicle id="33" depart="33.00">
        <route edges="-5549904#8 5560429#3 5560429#4 -5558835#7 5558349#5 5558349#6 5558349#7 5558349#8 5558349#9 5558349#10 5558349#11 5558349#12 28897989#2 -5546306 5546306"/>
    </vehicle>
    <vehicle id="34" depart="34.00">
        <route edges="5558349#5 5558349#6 -5545967#1 -5545967#0"/>
    </vehicle>
    <vehicle id="35" depart="35.00">
        <route edges="-5560429#2 -5560429#1 -5551845#0"/>
    </vehicle>
    <vehicle id="36" depart="36.00">
        <route edges="-257403079#3 -5546653#3 5558981#2 5546953#0 5546953#1 5556681 -5553904#4 5543965#0 5543965#1 5543965#2 -26404712#5 -26404712#4 -26404712#3 -26404712#2 -26404712#1 -26404712#0"/>
    </vehicle>
    <vehicle id="37" depart="37.00">
        <route edges="-5557869#0 5542394#4 5542394#5 5542394#6 5553904#2 5553904#3 5553904#4 5553904#5 5553904#6 5553904#7 5553904#8 5553904#9 5553904#10 -5542667#8 -5542667#7 5557743#6 5557743#7 5557743#8 5550020#1 5550020#2 5550020#3 5550020#4 5550020#5 5553031#0 5553031#1 5559910#4 5559910#5"/>
    </vehicle>
    <vehicle id="38" depart="38.00">
        <route edges="5542667#6 5557743#6 5557743#7 5557743#8 5559415#0 5559415#1 5559415#2 5559415#3 -5549828#0 5553664#4 5554818#0 5554818#1 5554818#2"/>
    </vehicle>
    <vehicle id="39" depart="39.00">
        <route edges="-5560429#4 -5560429#3 -5560429#2 -5560429#1 5551845#1 5551845#2 321513444#3"/>
    </vehicle>
    <vehicle id="40" depart="40.00">
        <route edges="26404712#2 -5554818#3 5544999#0 5558034#1 5558034#2 5558034#3 -5553970#2 -5553970#1 5555000#2 5555000#3 5557007#0 5557007#1 5557007#2 5557007#3 5557261#6"/>
    </vehicle>
    <vehicle id="41" depart="41.00">
        <route edges="5560429#3 -5560429#3 -5549904#7 -5549904#6 -5549904#5 -5549904#4 -447727596#1"/>
    </vehicle>
    <vehicle id="42" depart="42.00">
        <route edges="447727596#0 5551845#5 5551845#6 5557743#1 5557743#2 5557743#3 5557743#4 5557743#5 5557743#6 28897989#7 28897989#8 5555990#0 5555990#1 5555990#2 5543965#1 5543965#2 -26404712#5 -26404712#4 -26404712#3 5554818#4 5554818#5 5554818#6 5554818#7 5554818#8 -5550798#2 -5550798#1 -5550798#0"/>
    </vehicle>
    <vehicle id="43" depart="43.00">
        <route edges="-5551200 -5557007#7 -5557007#6 -5557007#5 -5557007#4 -5557007#3 -5557007#2 -5557007#1 -5557007#0 -5555000#3 -5555000#2 -5555000#1 -5555000#0 5542674#6"/>
    </vehicle>
    <vehicle id="44" depart="44.00">
        <route edges="-5553664#1 -5553664#0 5556091#0 5556091#1 5555990#0 -257403079#6 257403079#6"/>
    </vehicle>
    <vehicle id="45" depart="45.00">
        <route edges="5554818#2 5544999#0 5558034#1 5558034#2 5558034#3 -5553970#2 -5553970#1 5555000#2 5555000#3 5553664#8"/>
    </vehicle>
    <vehicle id="46" depart="46.00">
        <route edges="5532886#1 -5532886#1 -5532886#0 5556091#4"/>
    </vehicle>
    <vehicle id="47" depart="47.00">
        <route edges="5558349#0 5551845#2 5551845#3 5551845#4 5551845#5 5551845#6 5557743#1 5557743#2 5557743#3 5557743#4 5557743#5 5557743#6 5557743#7 5557743#8 5559415#0 5559415#1 5559415#2 5559415#3 5559415#4 5559097#1 5559097#2 5557261#5 -5557261#5"/>
    </vehicle>
    <vehicle id="48" depart="48.00">
        <route edges="-5549904#7 -5549904#6 -5549904#5 -5549904#4 -5549904#3 -5549904#2 -5549904#1 -5549904#0 -5556091#7 -5546653#5 -5546653#4 -5546653#3 -5546653#2 -5546653#1 -5546653#0 -5542394#2 -5542394#1 -5542394#0"/>
    </vehicle>
    <vehicle id="49" depart="49.00">
        <route edges="-5542667#3 -321513444#7 -321513444#6 321513444#6"/>
    </vehicle>
    <vehicle id="50" depart="50.00">
        <route edges="5551845#0 5560429#1 5560429#2 5560429#3 5560429#4 -5558835#7 5558349#5 5558349#6 5558349#7 5558349#8 5558349#9 5558349#10 5558349#11 -5558349#11"/>
    </vehicle>
    <vehicle id="51" depart="51.00">
        <route edges="-5532886#8 -5532886#7 -5558349#8 -5558349#7 -5558349#6 -5558349#5 -5558349#4 -5558349#3 -5549904#6 -5549904#5 -5549904#4 -5549904#3"/>
    </vehicle>
    <vehicle id="52" depart="52.00">
        <route edges="5556383#2 5556383#3 -5549828#2 -5549828#1 -5549828#0 5553664#4 5554818#0 5554818#1 5554818#2 5554818#3 5554818#4 5554818#5 5543686#4 5556815#0 5556815#1 5556815#2 5542426"/>
    </vehicle>
    <vehicle id="53" depart="53.00">
        <route edges="321513444#2 5551845#3 5551845#4 5551845#5 5551845#6 5557743#1 5557743#2 5557743#3 5557743#4 5557743#5 5557743#6 28897989#7 28897989#8 5555990#0 5555990#1 5555990#2 5543965#1 5543965#2 -26404712#5 -26404712#4 -26404712#3 -26404712#2 -26404712#1"/>
    </vehicle>
    <vehicle id="54" depart="54.00">
        <route edges="-5558835#8 -5560429#4 -5560429#3 -5560429#2 -5560429#1"/>
    </vehicle>
    <vehicle id="55" depart="55.00">
        <route edges="5558349#0 5551845#2 5551845#3 5551845#4 5551845#5 5551845#6 5557743#1 -5549904#1 -5549904#0 -5556091#7 -5546653#5 -5546653#4 -5546653#3 -5546653#2 -5546653#1 -5557869#1 -5557869#0 5542394#4 5542394#5 -5552125#1 5552125#1"/>
    </vehicle>
    <vehicle id="56" depart="56.00">
        <route edges="-5554818#6 -5554818#5 -5554818#4 26404712#3 26404712#4 26404712#5 28658381#6 -28658381#6"/>
    </vehicle>
    <vehicle id="57" depart="57.00">
        <route edges="5553031#5 -5553031#5 -5559097#5 -5559097#4 -5559097#3 -5559097#2 -5559097#1 -5559415#4 -5559415#3 -5559415#2 -5559415#1 -5559415#0 -5557743#8 -5557743#7 -5557743#6 5542667#7 5542667#8 -5553904#10 -5553904#9 -5553904#8 -5553904#7 -5553904#6 -5553904#5 -5553904#4 -5553904#3 -5553904#2 -5542394#6 -5542394#5 -5542394#4 5542394#4"/>
    </vehicle>
    <vehicle id="58" depart="58.00">
        <route edges="-5549904#8 -5549904#7 -5549904#6 -5549904#5 -5549904#4 -5549904#3 -5549904#2 5557743#2 5557743#3 5557743#4 5557743#5 5557743#6 28897989#7 28897989#8 5555990#0 5555990#1 5555990#2 5543965#1 5543965#2 -26404712#5 -26404712#4 28897919#0 5543686#2 -5543686#2"/>
    </vehicle>
    <vehicle id="59" depart="59.00">
        <route edges="-5542674#6 5555000#0 5555000#1 5555000#2 5555000#3 -5553664#7 -5553664#6 -5553664#5 -5553664#4 -5553664#3 -5553664#2 -5553664#1 -5553664#0 5556091#0 5556091#1 5556091#2 5556091#3 5556091#4 5556091#5 5556091#6 5556091#7 5556091#8"/>
    </vehicle>
    <vehicle id="60" depart="60.00">
        <route edges="5558034#1 5558034#2 5558034#3 5558034#4 5559097#0 5559097#1 5559097#2 5559097#3 5559097#4 -5556383#4 -5556383#3 -5556383#2 -5556383#1 -5556383#0 5550020#5"/>
    </vehicle>
    <vehicle id="61" depart="61.00">
        <route edges="-5553970#3 -5558034#3 -5558034#2 -5558034#1 -5544999#0 5554818#3 -26404712#2"/>
    </vehicle>
    <vehicle id="62" depart="62.00">
        <route edges="5558981#4 -5558981#4 -5558981#3 -5558981#2 5546653#3 5546653#4 -5546653#4"/>
    </vehicle>
    <vehicle id="63" depart="63.00">
        <route edges="-447727596#4 5545967#5 5545967#6 5557743#4 5557743#5 5557743#6 5557743#7 5557743#8 -5550020#0 5553664#0 -5553664#0"/>
    </vehicle>
    <vehicle id="64" depart="64.00">
        <route edges="-5546953#1 -5546953#0 5558981#3 5553904#7 5553904#8 5553904#9 5553904#10 -5556091#2 -5556091#1 -5556091#0 5553664#0 5553664#1 5553664#2 5553664#3 5553664#4 5553664#5 5553664#6 5553664#7 5553664#8"/>
    </vehicle>
    <vehicle id="65" depart="65.00">
        <route edges="-5554818#2 -5554818#1 5553970#4 5553970#5 5553970#6 5553970#7 -257403079#8 -257403079#7 -257403079#6 -257403079#5 5553904#8 5553904#9 5553904#10 5556091#3"/>
    </vehicle>
    <vehicle id="66" depart="66.00">
        <route edges="5545967#0 -5560429#6"/>
    </vehicle>
    <vehicle id="67" depart="67.00">
        <route edges="-5553664#8 -5553664#7 -5553664#6 -5553664#5 -5553664#4 5549828#0 -5559415#3 -5559415#2 -5559415#1 -5559415#0 -5557743#8 -5557743#7 -5557743#6 -5557743#5 -5557743#4 -5557743#3 -5557743#2 -5557743#1 -5551845#6 -5551845#5 -5551845#4 -5551845#3 -321513444#2"/>
    </vehicle>
    <vehicle id="68" depart="68.00">
        <route edges="5554818#2 5544999#0 5558034#1 5558034#2 5558034#3 5558034#4 -5558034#4"/>
    </vehicle>
    <vehicle id="69" depart="69.00">
        <route edges="-5553664#8 -5555000#3 -5555000#2 5553970#1 5553970#2 -5558034#3 -5558034#2 -5558034#1 -5544999#0 5554818#3 26404712#3 28897919#0 28897919#1 -5555922#1 -5555922#0 -28658381#3"/>
    </vehicle>
    <vehicle id="70" depart="70.00">
        <route edges="5560429#0 5551845#1 5551845#2 5551845#3 5551845#4 5551845#5 5551845#6 5557743#1 5557743#2 5557743#3 5557743#4 5557743#5 5557743#6 28897989#7 28897989#8 5555990#0 5555990#1 5555990#2 5543965#1 5543965#2 -26404712#5 -26404712#4 28897919#0 28897919#1 5555922#2 5555922#3"/>
    </vehicle>
    <vehicle id="71" depart="71.00">
        <route edges="-5553031#2 5553031#2 5553031#3 -5549828#3 -5549828#2 -5549828#1 -5549828#0 5553664#4 5554818#0 5554818#1 5554818#2 5554818#3 -26404712#2"/>
    </vehicle>
    <vehicle id="72" depart="72.00">
        <route edges="321513444#1 321513444#2 -5551845#2 5558349#1 5558349#2 5558349#3 5558349#4 5558349#5 5558349#6 5558349#7 5558349#8 5558349#9 5558349#10 5558349#11 5558349#12 28897989#2 -5546306 5556383#0 5556383#1 5556383#2 5556383#3 5549828#3 5549828#4"/>
    </vehicle>
    <vehicle id="73" depart="73.00">
        <route edges="-5551845#6 -5551845#5 447727596#1 -447727596#1"/>
    </vehicle>
    <vehicle id="74" depart="74.00">
        <route edges="-447727596#0 447727596#0 5551845#5 5551845#6 5557743#1 5557743#2 5557743#3 5557743#4 5557743#5 5557743#6 28897989#7 28897989#8 5555990#0 5555990#1 5558981#5 5542674#0 5542674#1"/>
    </vehicle>
    <vehicle id="75" depart="75.00">
        <route edges="-28897919#0 26404712#4 26404712#5 -5543965#2 -5543965#1 -5543965#0 5553904#4 5553904#5 5553904#6 5553904#7 5553904#8 5553904#9 5553904#10 -5542667#8 -5542667#7 -5557743#5 -5557743#4 -5557743#3 -5557743#2 -5557743#1 -5551845#6 -5551845#5 -447727596#0 -321513444#1 321513444#1"/>
    </vehicle>
    <vehicle id="76" depart="76.00">
        <route edges="5559910#0 5559415#2 5559415#3 5549828#1 5557261#4"/>
    </vehicle>
    <vehicle id="77" depart="77.00">
        <route edges="-5554419#3 5552125#0 5552125#1 -5542394#5 -5542394#4 5557869#0 5557869#1 5546653#1 5546653#2 5546653#3 5546653#4 5546653#5 5556091#7 5549904#0 5549904#1 -5557743#1 -5551845#6 -5551845#5 -447727596#0 447727596#0"/>
    </vehicle>
    <vehicle id="78" depart="78.00">
        <route edges="-5555607#2 -5554818#9 -5554818#8 -5554818#7 -5554818#6 -5554818#5 -5554818#4 26404712#3 26404712#4 26404712#5 28658381#6 -5558981#5 -5558981#4"/>
    </vehicle>
    <vehicle id="79" depart="79.00">
        <route edges="28658381#5 -26404712#5 -26404712#4 -26404712#3 5554818#4 5543807"/>
    </vehicle>
    <vehicle id="80" depart="80.00">
        <route edges="-5556091#8 5549904#0 5549904#1 -5557743#1 5557743#1"/>
    </vehicle>
    <vehicle id="81" depart="81.00">
        <route edges="-5544999#1 5558034#1 5558034#2 5558034#3 -5553970#2 -5553970#1 5555000#2 5555000#3 5557007#0 -5557007#0"/>
    </vehicle>
    <vehicle id="82" depart="82.00">
        <route edges="-447727596#0 447727596#0"/>
    </vehicle>
    <vehicle id="83" depart="83.00">
        <route edges="-447727596#5 447727596#5 447727596#6 447727596#7 447727596#8 447727596#9 5550020#3 5550020#4 5550020#5 5550020#6"/>
    </vehicle>
    <vehicle id="84" depart="84.00">
        <route edges="26404712#3 -26404712#3 5554818#4 5554818#5 5543686#4 5556815#0 5556815#1 5556815#2 5556815#3"/>
    </vehicle>
    <vehicle id="85" depart="85.00">
        <route edges="-5558981#5 -5558981#4 5553904#7 5553904#8 5553904#9 5553904#10 -5542667#8 -5542667#7 -5557743#5 -5557743#4 -5557743#3 -5557743#2 5557743#2"/>
    </vehicle>
    <vehicle id="86" depart="86.00">
        <route edges="-321513444#3 -5551845#2 5558349#1 5558349#2 5558349#3 5558349#4 5558349#5 5558349#6 5558349#7 5558349#8 5558349#9 5558349#10 5558349#11 5558349#12"/>
    </vehicle>
    <vehicle id="87" depart="87.00">
        <route edges="-5543807 -5554818#4 26404712#3 26404712#4 26404712#5 -5543965#2 -5543965#1 -5543965#0 5553904#4 5553904#5 5553904#6 5553904#7 5553904#8 5553904#9 5553904#10 -5542667#8 -5542667#7 -5542667#6 -5542667#5 -5542667#4 5542667#4"/>
    </vehicle>
    <vehicle id="88" depart="88.00">
        <route edges="-5555922#0 5555922#0 5555922#1 5555922#2 5555922#3 5554818#8 -5550798#2 5550798#2"/>
    </vehicle>
    <vehicle id="89" depart="89.00">
        <route edges="5553970#0 5555000#2 5555000#3 -5553664#7 -5553664#6 -5553664#5 -5553664#4 5549828#0 -5559415#3 -5559415#2 5559910#1"/>
    </vehicle>
    <vehicle id="90" depart="90.00">
        <route edges="5553904#0 5553904#1 5553904#2 5553904#3 5543965#0 5543965#1 5543965#2 -26404712#5 -26404712#4 -26404712#3 -5554818#3 5544999#0 5558034#1 5542674#5 5542674#6"/>
    </vehicle>
    <vehicle id="91" depart="91.00">
        <route edges="-321513444#2"/>
    </vehicle>
    <vehicle id="92" depart="92.00">
        <route edges="5542394#4 5542394#5 5542394#6 5553904#2 5553904#3 5553904#4 5553904#5 5553904#6"/>
    </vehicle>
    <vehicle id="93" depart="93.00">
        <route edges="5558563 -5558563 257403079#1 257403079#2 5546653#4 5546653#5 5556091#7 5549904#0 5549904#1 5549904#2 5549904#3 5549904#4 5549904#5 -321513444#3"/>
    </vehicle>
    <vehicle id="94" depart="94.00">
        <route edges="5560429#0 5560429#1 5560429#2 5560429#3 5560429#4 -5558835#7 5558349#5 5558349#6 5558349#7 5558349#8 5558349#9 5558349#10 5558349#11 5558349#12 28897989#2 -5546306 5556383#0 5556383#1 5556383#2 5556383#3 5556383#4 5556383#5 5557007#6 5557007#7 5557007#8 5557007#9 -5557007#9"/>
    </vehicle>
    <vehicle id="95" depart="95.00">
        <route edges="5556815#2 -5556815#2 -5556815#1 -5556815#0 -5543686#4 -5554818#5 -5554818#4 26404712#3 26404712#4 26404712#5 -5543965#2 -5543965#1 -5543965#0 5553904#4 5553904#5 5553904#6 5553904#7 5553904#8 5553904#9 5553904#10 -5542667#8 -5542667#7 -5557743#5 -5557743#4 -5557743#3 -5557743#2 -5557743#1 -5557743#0"/>
    </vehicle>
    <vehicle id="96" depart="96.00">
        <route edges="5557743#7 -5557743#7 -5557743#6 5542667#7 5542667#8 -5553904#10 -5553904#9 -5553904#8 -5553904#7 -5553904#6 5553904#6"/>
    </vehicle>
    <vehicle id="97" depart="97.00">
        <route edges="-5558835#1 5558835#1 5557743#3 -5545967#6 -5545967#5 -5545967#4 -5545967#3 -5545967#2 5545967#2"/>
    </vehicle>
    <vehicle id="98" depart="98.00">
        <route edges="-5549828#1 -5549828#0 5553664#4 5554818#0 5554818#1 -5554818#1"/>
    </vehicle>
    <vehicle id="99" depart="99.00">
        <route edges="-5553031#7 -5553031#6 -5553031#5 -5553031#4 -5553031#3 -5553031#2 -5553031#1 -5553031#0 -5560433#1 -5560433#0 28897989#1 -5558349#12 -5558349#11 -5558349#10 -5558349#9 -5558349#8 -5558349#7 -5558349#6 -5558349#5 -5558835#6 -5558835#5 -5558835#4"/>
    </vehicle>
</routes>
