<?xml version="1.0" encoding="UTF-8"?>

<!-- generated on Sun Jul  9 16:52:04 2017 by SUMO netconvert Version 0.30.0
<?xml version="1.0" encoding="UTF-8"?>

<configuration xmlns:xsi="http://www.w3.org/2001/XMLSchema-instance" xsi:noNamespaceSchemaLocation="http://sumo.dlr.de/xsd/netconvertConfiguration.xsd">

    <input>
        <osm-files value="map.osm"/>
    </input>

    <output>
        <output-file value="bozeman.net.xml"/>
    </output>

    <projection>
        <proj.utm value="true"/>
    </projection>

</configuration>
-->

<net version="0.27" xmlns:xsi="http://www.w3.org/2001/XMLSchema-instance" xsi:noNamespaceSchemaLocation="http://sumo.dlr.de/xsd/net_file.xsd">

    <location netOffset="-494741.52,-5055956.25" convBoundary="0.00,0.00,3547.38,4662.26" origBoundary="-111.067516,45.657152,-111.020795,45.699115" projParameter="+proj=utm +zone=12 +ellps=WGS84 +datum=WGS84 +units=m +no_defs"/>

    <type id="highway.bridleway" priority="1" numLanes="1" speed="2.78" allow="pedestrian" oneway="1" width="2.00"/>
    <type id="highway.bus_guideway" priority="1" numLanes="1" speed="8.33" allow="bus" oneway="1"/>
    <type id="highway.cycleway" priority="1" numLanes="1" speed="5.56" allow="bicycle" oneway="0" width="1.00"/>
    <type id="highway.footway" priority="1" numLanes="1" speed="2.78" allow="pedestrian" oneway="1" width="2.00"/>
    <type id="highway.ford" priority="1" numLanes="1" speed="2.78" allow="army" oneway="0"/>
    <type id="highway.living_street" priority="3" numLanes="1" speed="2.78" disallow="tram rail_urban rail rail_electric ship" oneway="0"/>
    <type id="highway.motorway" priority="13" numLanes="2" speed="44.44" allow="private emergency authority army vip passenger hov taxi bus coach delivery truck trailer motorcycle evehicle custom1 custom2" oneway="1"/>
    <type id="highway.motorway_link" priority="12" numLanes="1" speed="22.22" allow="private emergency authority army vip passenger hov taxi bus coach delivery truck trailer motorcycle evehicle custom1 custom2" oneway="1"/>
    <type id="highway.path" priority="1" numLanes="1" speed="2.78" allow="bicycle pedestrian" oneway="1" width="2.00"/>
    <type id="highway.pedestrian" priority="1" numLanes="1" speed="2.78" allow="pedestrian" oneway="1" width="2.00"/>
    <type id="highway.primary" priority="9" numLanes="2" speed="27.78" disallow="tram rail_urban rail rail_electric ship" oneway="0"/>
    <type id="highway.primary_link" priority="8" numLanes="1" speed="22.22" disallow="tram rail_urban rail rail_electric ship" oneway="0"/>
    <type id="highway.raceway" priority="14" numLanes="2" speed="83.33" allow="vip" oneway="0"/>
    <type id="highway.residential" priority="4" numLanes="1" speed="13.89" disallow="tram rail_urban rail rail_electric ship" oneway="0"/>
    <type id="highway.secondary" priority="7" numLanes="2" speed="27.78" disallow="tram rail_urban rail rail_electric ship" oneway="0"/>
    <type id="highway.secondary_link" priority="6" numLanes="1" speed="22.22" disallow="tram rail_urban rail rail_electric ship" oneway="0"/>
    <type id="highway.service" priority="2" numLanes="1" speed="5.56" allow="delivery bicycle pedestrian" oneway="0"/>
    <type id="highway.services" priority="1" numLanes="1" speed="8.33" disallow="tram rail_urban rail rail_electric ship" oneway="0"/>
    <type id="highway.stairs" priority="1" numLanes="1" speed="1.39" allow="pedestrian" oneway="1" width="2.00"/>
    <type id="highway.step" priority="1" numLanes="1" speed="1.39" allow="pedestrian" oneway="1" width="2.00"/>
    <type id="highway.steps" priority="1" numLanes="1" speed="1.39" allow="pedestrian" oneway="1" width="2.00"/>
    <type id="highway.tertiary" priority="6" numLanes="1" speed="22.22" disallow="tram rail_urban rail rail_electric ship" oneway="0"/>
    <type id="highway.tertiary_link" priority="5" numLanes="1" speed="22.22" disallow="tram rail_urban rail rail_electric ship" oneway="0"/>
    <type id="highway.track" priority="1" numLanes="1" speed="5.56" disallow="tram rail_urban rail rail_electric ship" oneway="0"/>
    <type id="highway.trunk" priority="11" numLanes="2" speed="27.78" disallow="tram rail_urban rail rail_electric bicycle pedestrian ship" oneway="0"/>
    <type id="highway.trunk_link" priority="10" numLanes="1" speed="22.22" disallow="tram rail_urban rail rail_electric bicycle pedestrian ship" oneway="0"/>
    <type id="highway.unclassified" priority="5" numLanes="1" speed="13.89" disallow="tram rail_urban rail rail_electric ship" oneway="0"/>
    <type id="highway.unsurfaced" priority="1" numLanes="1" speed="8.33" disallow="tram rail_urban rail rail_electric ship" oneway="0"/>
    <type id="railway.light_rail" priority="15" numLanes="1" speed="27.78" allow="rail_urban" oneway="1"/>
    <type id="railway.preserved" priority="15" numLanes="1" speed="27.78" allow="rail" oneway="1"/>
    <type id="railway.rail" priority="15" numLanes="1" speed="83.33" allow="rail rail_electric" oneway="1"/>
    <type id="railway.subway" priority="15" numLanes="1" speed="27.78" allow="rail_urban" oneway="1"/>
    <type id="railway.tram" priority="15" numLanes="1" speed="13.89" allow="tram" oneway="1"/>

    <edge id=":2752738744_0" function="internal">
        <lane id=":2752738744_0_0" index="0" disallow="tram rail_urban rail rail_electric ship" speed="13.89" length="9.50" shape="3035.14,2110.95 3035.10,2101.45"/>
    </edge>
    <edge id=":2752738744_1" function="internal">
        <lane id=":2752738744_1_0" index="0" allow="delivery bicycle pedestrian" speed="9.73" length="5.19" shape="3035.14,2110.95 3035.54,2108.13 3036.74,2106.12"/>
    </edge>
    <edge id=":2752738744_2" function="internal">
        <lane id=":2752738744_2_0" index="0" disallow="tram rail_urban rail rail_electric ship" speed="13.89" length="2.41" shape="3035.14,2110.95 3035.96,2109.71 3036.79,2109.29"/>
    </edge>
    <edge id=":2752738744_9" function="internal">
        <lane id=":2752738744_9_0" index="0" speed="9.73" length="5.19" shape="3036.74,2106.12 3038.75,2104.92 3041.57,2104.54"/>
    </edge>
    <edge id=":2752738744_10" function="internal">
        <lane id=":2752738744_10_0" index="0" speed="13.89" length="2.41" shape="3036.79,2109.29 3037.61,2109.70 3038.44,2110.93"/>
    </edge>
    <edge id=":2752738744_3" function="internal">
        <lane id=":2752738744_3_0" index="0" disallow="tram rail_urban rail rail_electric ship" speed="9.73" length="5.01" shape="3041.55,2107.84 3040.19,2108.02 3039.21,2108.60 3038.63,2109.57 3038.44,2110.93"/>
    </edge>
    <edge id=":2752738744_4" function="internal">
        <lane id=":2752738744_4_0" index="0" disallow="tram rail_urban rail rail_electric ship" speed="9.73" length="10.32" shape="3041.55,2107.84 3038.74,2107.42 3036.73,2106.22 3035.52,2104.23 3035.10,2101.45"/>
    </edge>
    <edge id=":2752738744_5" function="internal">
        <lane id=":2752738744_5_0" index="0" allow="delivery bicycle pedestrian" speed="5.56" length="4.82" shape="3041.55,2107.84 3040.32,2107.01 3039.91,2106.18 3040.33,2105.36 3041.57,2104.54"/>
    </edge>
    <edge id=":2752738744_6" function="internal">
        <lane id=":2752738744_6_0" index="0" allow="delivery bicycle pedestrian" speed="9.73" length="5.05" shape="3038.40,2101.43 3038.61,2102.78 3039.20,2103.75 3040.19,2104.34 3041.57,2104.54"/>
    </edge>
    <edge id=":2752738744_7" function="internal">
        <lane id=":2752738744_7_0" index="0" disallow="tram rail_urban rail rail_electric ship" speed="13.89" length="9.50" shape="3038.40,2101.43 3038.44,2110.93"/>
    </edge>
    <edge id=":2752738744_8" function="internal">
        <lane id=":2752738744_8_0" index="0" disallow="tram rail_urban rail rail_electric ship" speed="13.89" length="2.41" shape="3038.40,2101.43 3037.58,2102.68 3036.76,2103.09"/>
    </edge>
    <edge id=":2752738744_11" function="internal">
        <lane id=":2752738744_11_0" index="0" speed="13.89" length="2.41" shape="3036.76,2103.09 3035.93,2102.68 3035.10,2101.45"/>
    </edge>
    <edge id=":2752738751_0" function="internal">
        <lane id=":2752738751_0_0" index="0" allow="delivery bicycle pedestrian" speed="5.56" length="5.01" shape="3093.56,2213.06 3092.19,2213.24 3091.22,2213.81 3090.63,2214.78 3090.43,2216.13"/>
    </edge>
    <edge id=":2752738751_1" function="internal">
        <lane id=":2752738751_1_0" index="0" allow="delivery bicycle pedestrian" speed="5.56" length="10.32" shape="3093.56,2213.06 3090.75,2212.63 3088.76,2211.42 3087.57,2209.41 3087.18,2206.62"/>
    </edge>
    <edge id=":2752738751_2" function="internal">
        <lane id=":2752738751_2_0" index="0" allow="delivery bicycle pedestrian" speed="5.56" length="4.82" shape="3093.56,2213.06 3092.33,2212.22 3091.92,2211.39 3092.34,2210.57 3093.59,2209.76"/>
    </edge>
    <edge id=":2752738751_3" function="internal">
        <lane id=":2752738751_3_0" index="0" allow="delivery bicycle pedestrian" speed="5.56" length="5.02" shape="3090.48,2206.63 3090.67,2207.99 3091.25,2208.96 3092.22,2209.55 3093.59,2209.76"/>
    </edge>
    <edge id=":2752738751_4" function="internal">
        <lane id=":2752738751_4_0" index="0" allow="delivery bicycle pedestrian" speed="5.56" length="9.50" shape="3090.48,2206.63 3090.43,2216.13"/>
    </edge>
    <edge id=":2752738751_5" function="internal">
        <lane id=":2752738751_5_0" index="0" allow="delivery bicycle pedestrian" speed="5.56" length="4.82" shape="3090.48,2206.63 3089.65,2207.87 3088.82,2208.28 3088.00,2207.86 3087.18,2206.62"/>
    </edge>
    <edge id=":2752738751_6" function="internal">
        <lane id=":2752738751_6_0" index="0" allow="delivery bicycle pedestrian" speed="5.56" length="9.50" shape="3087.13,2216.12 3087.18,2206.62"/>
    </edge>
    <edge id=":2752738751_7" function="internal">
        <lane id=":2752738751_7_0" index="0" allow="delivery bicycle pedestrian" speed="5.56" length="10.35" shape="3087.13,2216.12 3087.55,2213.31 3088.76,2211.32 3090.78,2210.13 3093.59,2209.76"/>
    </edge>
    <edge id=":2752738751_8" function="internal">
        <lane id=":2752738751_8_0" index="0" allow="delivery bicycle pedestrian" speed="5.56" length="4.82" shape="3087.13,2216.12 3087.96,2214.88 3088.79,2214.48 3089.61,2214.89 3090.43,2216.13"/>
    </edge>
    <edge id=":2752738771_0" function="internal">
        <lane id=":2752738771_0_0" index="0" allow="delivery bicycle pedestrian" speed="5.56" length="7.98" shape="3094.79,2344.41 3092.56,2345.26 3090.96,2345.83 3089.63,2346.72 3088.22,2348.53"/>
    </edge>
    <edge id=":2752738771_1" function="internal">
        <lane id=":2752738771_1_0" index="0" allow="delivery bicycle pedestrian" speed="5.56" length="12.83" shape="3094.79,2344.41 3091.17,2345.45 3088.58,2344.90 3087.04,2342.75 3086.54,2339.01"/>
    </edge>
    <edge id=":2752738771_2" function="internal">
        <lane id=":2752738771_2_0" index="0" allow="delivery bicycle pedestrian" speed="5.56" length="4.82" shape="3094.79,2344.41 3093.33,2344.16 3092.61,2343.57 3092.66,2342.65 3093.45,2341.39"/>
    </edge>
    <edge id=":2752738771_3" function="internal">
        <lane id=":2752738771_3_0" index="0" allow="delivery bicycle pedestrian" speed="5.56" length="5.62" shape="3089.84,2339.03 3090.06,2340.67 3090.73,2341.61 3091.87,2341.85 3093.45,2341.39"/>
    </edge>
    <edge id=":2752738771_4" function="internal">
        <lane id=":2752738771_4_0" index="0" allow="delivery bicycle pedestrian" speed="5.56" length="9.88" shape="3089.84,2339.03 3089.94,2341.98 3089.99,2344.06 3089.56,2346.01 3088.22,2348.53"/>
    </edge>
    <edge id=":2752738771_5" function="internal">
        <lane id=":2752738771_5_0" index="0" allow="delivery bicycle pedestrian" speed="5.56" length="4.82" shape="3089.84,2339.03 3089.01,2340.26 3088.18,2340.67 3087.36,2340.26 3086.54,2339.01"/>
    </edge>
    <edge id=":2752738771_6" function="internal">
        <lane id=":2752738771_6_0" index="0" allow="delivery bicycle pedestrian" speed="5.56" length="8.03" shape="3085.43,2346.76 3086.49,2344.70 3086.77,2343.11 3086.66,2341.41 3086.54,2339.01"/>
    </edge>
    <edge id=":2752738771_7" function="internal">
        <lane id=":2752738771_7_0" index="0" allow="delivery bicycle pedestrian" speed="5.56" length="9.92" shape="3085.43,2346.76 3087.16,2344.48 3088.76,2343.28 3090.70,2342.48 3093.45,2341.39"/>
    </edge>
    <edge id=":2752738771_8" function="internal">
        <lane id=":2752738771_8_0" index="0" allow="delivery bicycle pedestrian" speed="5.56" length="4.82" shape="3085.43,2346.76 3086.79,2346.16 3087.71,2346.25 3088.19,2347.04 3088.22,2348.53"/>
    </edge>
    <edge id=":2752738772_0" function="internal">
        <lane id=":2752738772_0_0" index="0" allow="delivery bicycle pedestrian" speed="5.56" length="10.34" shape="3114.77,2341.00 3114.69,2351.35"/>
    </edge>
    <edge id=":2752738772_1" function="internal">
        <lane id=":2752738772_1_0" index="0" allow="delivery bicycle pedestrian" speed="5.56" length="13.30" shape="3114.77,2341.00 3114.21,2344.93 3112.60,2347.08 3109.93,2347.46 3106.22,2346.07"/>
    </edge>
    <edge id=":2752738772_2" function="internal">
        <lane id=":2752738772_2_0" index="0" allow="delivery bicycle pedestrian" speed="5.56" length="4.82" shape="3114.77,2341.00 3113.94,2342.23 3113.11,2342.64 3112.29,2342.22 3111.47,2340.98"/>
    </edge>
    <edge id=":2752738772_3" function="internal">
        <lane id=":2752738772_3_0" index="0" allow="delivery bicycle pedestrian" speed="5.56" length="5.74" shape="3107.78,2343.16 3109.38,2343.76 3110.53,2343.60 3111.23,2342.67 3111.47,2340.98"/>
    </edge>
    <edge id=":2752738772_4" function="internal">
        <lane id=":2752738772_4_0" index="0" allow="delivery bicycle pedestrian" speed="5.56" length="11.21" shape="3107.78,2343.16 3110.82,2345.07 3112.98,2347.07 3114.27,2349.16 3114.69,2351.35"/>
    </edge>
    <edge id=":2752738772_5" function="internal">
        <lane id=":2752738772_5_0" index="0" allow="delivery bicycle pedestrian" speed="5.56" length="4.82" shape="3107.78,2343.16 3108.48,2344.48 3108.46,2345.40 3107.70,2345.93 3106.22,2346.07"/>
    </edge>
    <edge id=":2752738772_6" function="internal">
        <lane id=":2752738772_6_0" index="0" allow="delivery bicycle pedestrian" speed="5.56" length="7.65" shape="3111.39,2351.32 3111.07,2350.07 3110.11,2348.77 3108.49,2347.44 3106.22,2346.07"/>
    </edge>
    <edge id=":2752738772_7" function="internal">
        <lane id=":2752738772_7_0" index="0" allow="delivery bicycle pedestrian" speed="5.56" length="10.34" shape="3111.39,2351.32 3111.47,2340.98"/>
    </edge>
    <edge id=":2752738772_8" function="internal">
        <lane id=":2752738772_8_0" index="0" allow="delivery bicycle pedestrian" speed="5.56" length="4.82" shape="3111.39,2351.32 3112.22,2350.09 3113.05,2349.68 3113.87,2350.10 3114.69,2351.35"/>
    </edge>
    <edge id=":2752738781_0" function="internal">
        <lane id=":2752738781_0_0" index="0" allow="delivery bicycle pedestrian" speed="5.56" length="9.50" shape="3114.56,2368.05 3114.48,2377.55"/>
    </edge>
    <edge id=":2752738781_1" function="internal">
        <lane id=":2752738781_1_0" index="0" allow="delivery bicycle pedestrian" speed="5.56" length="10.44" shape="3114.56,2368.05 3114.13,2370.88 3112.89,2372.88 3110.85,2374.04 3108.00,2374.36"/>
    </edge>
    <edge id=":2752738781_2" function="internal">
        <lane id=":2752738781_2_0" index="0" allow="delivery bicycle pedestrian" speed="5.56" length="4.82" shape="3114.56,2368.05 3113.72,2369.28 3112.90,2369.68 3112.07,2369.27 3111.26,2368.02"/>
    </edge>
    <edge id=":2752738781_3" function="internal">
        <lane id=":2752738781_3_0" index="0" allow="delivery bicycle pedestrian" speed="5.56" length="5.03" shape="3108.10,2371.06 3109.47,2370.91 3110.46,2370.35 3111.05,2369.39 3111.26,2368.02"/>
    </edge>
    <edge id=":2752738781_4" function="internal">
        <lane id=":2752738781_4_0" index="0" allow="delivery bicycle pedestrian" speed="5.56" length="10.33" shape="3108.10,2371.06 3110.91,2371.54 3112.91,2372.78 3114.10,2374.79 3114.48,2377.55"/>
    </edge>
    <edge id=":2752738781_5" function="internal">
        <lane id=":2752738781_5_0" index="0" allow="delivery bicycle pedestrian" speed="5.56" length="4.82" shape="3108.10,2371.06 3109.31,2371.93 3109.70,2372.76 3109.26,2373.57 3108.00,2374.36"/>
    </edge>
    <edge id=":2752738781_6" function="internal">
        <lane id=":2752738781_6_0" index="0" allow="delivery bicycle pedestrian" speed="5.56" length="5.09" shape="3111.18,2377.52 3110.99,2376.18 3110.40,2375.20 3109.40,2374.60 3108.00,2374.36"/>
    </edge>
    <edge id=":2752738781_7" function="internal">
        <lane id=":2752738781_7_0" index="0" allow="delivery bicycle pedestrian" speed="5.56" length="9.50" shape="3111.18,2377.52 3111.26,2368.02"/>
    </edge>
    <edge id=":2752738781_8" function="internal">
        <lane id=":2752738781_8_0" index="0" allow="delivery bicycle pedestrian" speed="5.56" length="4.82" shape="3111.18,2377.52 3112.02,2376.29 3112.85,2375.89 3113.67,2376.31 3114.48,2377.55"/>
    </edge>
    <edge id=":2752738792_0" function="internal">
        <lane id=":2752738792_0_0" index="0" disallow="tram rail_urban rail rail_electric ship" speed="11.18" length="9.57" shape="3116.78,2473.29 3107.19,2473.14"/>
        <lane id=":2752738792_0_1" index="1" disallow="tram rail_urban rail rail_electric ship" speed="11.18" length="9.57" shape="3116.82,2469.99 3107.26,2469.84"/>
    </edge>
    <edge id=":2752738792_2" function="internal">
        <lane id=":2752738792_2_0" index="0" allow="delivery bicycle pedestrian" speed="8.37" length="4.49" shape="3116.82,2469.99 3114.04,2469.35 3112.84,2468.23"/>
    </edge>
    <edge id=":2752738792_3" function="internal">
        <lane id=":2752738792_3_0" index="0" disallow="tram rail_urban rail rail_electric ship" speed="11.18" length="2.41" shape="3116.82,2469.99 3115.59,2469.15 3115.19,2468.32"/>
    </edge>
    <edge id=":2752738792_11" function="internal">
        <lane id=":2752738792_11_0" index="0" speed="8.37" length="8.61" shape="3112.84,2468.23 3112.06,2467.50 3110.89,2464.44 3110.53,2460.18"/>
    </edge>
    <edge id=":2752738792_12" function="internal">
        <lane id=":2752738792_12_0" index="0" speed="11.18" length="2.41" shape="3115.19,2468.32 3115.61,2467.50 3116.86,2466.69"/>
    </edge>
    <edge id=":2752738792_4" function="internal">
        <lane id=":2752738792_4_0" index="0" disallow="tram rail_urban rail rail_electric ship" speed="8.37" length="5.04" shape="3113.83,2460.21 3114.01,2461.58 3114.58,2462.58 3115.55,2463.18 3116.90,2463.39"/>
    </edge>
    <edge id=":2752738792_5" function="internal">
        <lane id=":2752738792_5_0" index="0" disallow="tram rail_urban rail rail_electric ship" speed="8.37" length="13.17" shape="3113.83,2460.21 3113.39,2464.47 3112.15,2467.49 3110.10,2469.28 3107.26,2469.84"/>
    </edge>
    <edge id=":2752738792_6" function="internal">
        <lane id=":2752738792_6_0" index="0" allow="delivery bicycle pedestrian" speed="5.56" length="4.82" shape="3113.83,2460.21 3112.99,2461.44 3112.17,2461.84 3111.34,2461.42 3110.53,2460.18"/>
    </edge>
    <edge id=":2752738792_7" function="internal">
        <lane id=":2752738792_7_0" index="0" allow="delivery bicycle pedestrian" speed="8.37" length="5.01" shape="3107.39,2463.24 3108.75,2463.07 3109.73,2462.51 3110.32,2461.54 3110.53,2460.18"/>
    </edge>
    <edge id=":2752738792_8" function="internal">
        <lane id=":2752738792_8_0" index="0" disallow="tram rail_urban rail rail_electric ship" speed="11.18" length="9.52" shape="3107.39,2463.24 3116.90,2463.39"/>
        <lane id=":2752738792_8_1" index="1" disallow="tram rail_urban rail rail_electric ship" speed="11.18" length="9.52" shape="3107.32,2466.54 3116.86,2466.69"/>
    </edge>
    <edge id=":2752738792_10" function="internal">
        <lane id=":2752738792_10_0" index="0" disallow="tram rail_urban rail rail_electric ship" speed="11.18" length="2.41" shape="3107.32,2466.54 3108.54,2467.39 3108.94,2468.22"/>
    </edge>
    <edge id=":2752738792_13" function="internal">
        <lane id=":2752738792_13_0" index="0" speed="11.18" length="2.41" shape="3108.94,2468.22 3108.51,2469.04 3107.26,2469.84"/>
    </edge>
    <edge id=":2756757461_0" function="internal">
        <lane id=":2756757461_0_0" index="0" disallow="tram rail_urban rail rail_electric ship" speed="13.89" length="4.82" shape="2910.15,3333.57 2909.33,3334.80 2908.50,3335.21 2907.68,3334.80 2906.85,3333.56"/>
    </edge>
    <edge id=":314955644_0" function="internal">
        <lane id=":314955644_0_0" index="0" disallow="tram rail_urban rail rail_electric ship" speed="13.89" length="4.82" shape="2002.64,405.37 2003.46,404.13 2004.28,403.71 2005.11,404.12 2005.94,405.35"/>
    </edge>
    <edge id=":314955654_0" function="internal">
        <lane id=":314955654_0_0" index="0" allow="bicycle pedestrian" speed="4.17" length="3.62" width="2.00" shape="3062.90,2075.82 3062.05,2075.14 3061.23,2074.82 3060.45,2074.87 3059.69,2075.28"/>
    </edge>
    <edge id=":314955654_1" function="internal">
        <lane id=":314955654_1_0" index="0" allow="bicycle" speed="5.56" length="4.84" width="1.00" shape="3062.90,2075.82 3061.90,2074.80 3061.26,2074.05 3060.74,2073.21 3060.09,2071.94"/>
    </edge>
    <edge id=":314955654_2" function="internal">
        <lane id=":314955654_2_0" index="0" allow="bicycle" speed="5.56" length="1.61" width="1.00" shape="3062.90,2075.82 3062.81,2075.34 3062.90,2075.05 3063.19,2074.95 3063.68,2075.04"/>
    </edge>
    <edge id=":314955654_3" function="internal">
        <lane id=":314955654_3_0" index="0" allow="bicycle" speed="5.56" length="4.47" width="1.00" shape="3061.08,2071.45 3061.68,2072.63 3062.16,2073.41 3062.75,2074.10 3063.68,2075.04"/>
    </edge>
    <edge id=":314955654_4" function="internal">
        <lane id=":314955654_4_0" index="0" allow="bicycle pedestrian" speed="4.17" length="4.43" width="2.00" shape="3061.08,2071.45 3061.35,2072.42 3061.21,2073.38 3060.66,2074.33 3059.69,2075.28"/>
    </edge>
    <edge id=":314955654_5" function="internal">
        <lane id=":314955654_5_0" index="0" allow="bicycle" speed="5.56" length="1.61" width="1.00" shape="3061.08,2071.45 3061.02,2071.94 3060.83,2072.19 3060.52,2072.18 3060.09,2071.94"/>
    </edge>
    <edge id=":319260625_0" function="internal">
        <lane id=":319260625_0_0" index="0" disallow="tram rail_urban rail rail_electric ship" speed="13.89" length="9.11" shape="3315.69,2582.60 3313.10,2581.83 3311.29,2581.41 3309.44,2581.21 3306.75,2581.08"/>
    </edge>
    <edge id=":319260625_1" function="internal">
        <lane id=":319260625_1_0" index="0" disallow="tram rail_urban rail rail_electric ship" speed="13.89" length="7.50" shape="3315.69,2582.60 3313.10,2581.65 3311.32,2580.62 3310.33,2579.51 3310.14,2578.32"/>
    </edge>
    <edge id=":319260625_2" function="internal">
        <lane id=":319260625_2_0" index="0" disallow="tram rail_urban rail rail_electric ship" speed="13.89" length="0.94" shape="3313.39,2578.88 3312.94,2579.71"/>
    </edge>
    <edge id=":319260625_3" function="internal">
        <lane id=":319260625_3_0" index="0" disallow="tram rail_urban rail rail_electric ship" speed="13.89" length="0.97" shape="3313.39,2578.88 3312.73,2579.58"/>
    </edge>
    <edge id=":319260625_4" function="internal">
        <lane id=":319260625_4_0" index="0" speed="13.89" length="6.55" shape="3312.94,2579.71 3312.82,2579.94 3311.52,2580.65 3309.50,2581.04 3306.75,2581.08"/>
    </edge>
    <edge id=":319260625_5" function="internal">
        <lane id=":319260625_5_0" index="0" speed="13.89" length="3.85" shape="3312.73,2579.58 3312.37,2579.96 3311.49,2580.23 3310.75,2579.68 3310.14,2578.32"/>
    </edge>
    <edge id=":319260626_0" function="internal">
        <lane id=":319260626_0_0" index="0" disallow="tram rail_urban rail rail_electric ship" speed="13.89" length="9.34" shape="3299.27,2580.79 3296.50,2580.68 3294.60,2580.66 3292.70,2580.73 3289.94,2580.89"/>
    </edge>
    <edge id=":319260626_1" function="internal">
        <lane id=":319260626_1_0" index="0" disallow="tram rail_urban rail rail_electric ship" speed="13.89" length="7.70" shape="3299.27,2580.79 3296.50,2580.50 3294.52,2579.89 3293.32,2578.95 3292.92,2577.68"/>
    </edge>
    <edge id=":319260626_2" function="internal">
        <lane id=":319260626_2_0" index="0" disallow="tram rail_urban rail rail_electric ship" speed="13.89" length="1.04" shape="3296.22,2577.65 3295.92,2578.64"/>
    </edge>
    <edge id=":319260626_3" function="internal">
        <lane id=":319260626_3_0" index="0" disallow="tram rail_urban rail rail_electric ship" speed="13.89" length="1.08" shape="3296.22,2577.65 3295.63,2578.55"/>
    </edge>
    <edge id=":319260626_4" function="internal">
        <lane id=":319260626_4_0" index="0" speed="13.89" length="6.66" shape="3295.92,2578.64 3295.84,2578.92 3294.66,2579.88 3292.70,2580.54 3289.94,2580.89"/>
    </edge>
    <edge id=":319260626_5" function="internal">
        <lane id=":319260626_5_0" index="0" speed="13.89" length="3.74" shape="3295.63,2578.55 3295.40,2578.89 3294.58,2579.31 3293.75,2578.91 3292.92,2577.68"/>
    </edge>
    <edge id=":319260645_0" function="internal">
        <lane id=":319260645_0_0" index="0" disallow="tram rail_urban rail rail_electric ship" speed="13.89" length="9.94" shape="3308.34,2569.31 3311.28,2569.45 3313.30,2569.67 3315.27,2570.13 3318.09,2570.97"/>
    </edge>
    <edge id=":319260645_1" function="internal">
        <lane id=":319260645_1_0" index="0" disallow="tram rail_urban rail rail_electric ship" speed="13.89" length="8.23" shape="3308.34,2569.31 3311.21,2569.66 3313.17,2570.43 3314.22,2571.64 3314.35,2573.27"/>
    </edge>
    <edge id=":319260645_2" function="internal">
        <lane id=":319260645_2_0" index="0" disallow="tram rail_urban rail rail_electric ship" speed="13.89" length="1.29" shape="3311.10,2572.72 3311.63,2571.54"/>
    </edge>
    <edge id=":319260645_3" function="internal">
        <lane id=":319260645_3_0" index="0" disallow="tram rail_urban rail rail_electric ship" speed="13.89" length="1.38" shape="3311.10,2572.72 3312.05,2571.71"/>
    </edge>
    <edge id=":319260645_4" function="internal">
        <lane id=":319260645_4_0" index="0" speed="13.89" length="6.95" shape="3311.63,2571.54 3311.78,2571.22 3313.16,2570.43 3315.27,2570.35 3318.09,2570.97"/>
    </edge>
    <edge id=":319260645_5" function="internal">
        <lane id=":319260645_5_0" index="0" speed="13.89" length="3.44" shape="3312.05,2571.71 3312.12,2571.64 3313.01,2571.37 3313.75,2571.91 3314.35,2573.27"/>
    </edge>
    <edge id=":319260646_0" function="internal">
        <lane id=":319260646_0_0" index="0" disallow="tram rail_urban rail rail_electric ship" speed="13.89" length="1.18" shape="3292.85,2572.05 3293.15,2570.91"/>
    </edge>
    <edge id=":319260646_1" function="internal">
        <lane id=":319260646_1_0" index="0" disallow="tram rail_urban rail rail_electric ship" speed="13.89" length="1.24" shape="3292.85,2572.05 3293.53,2571.00"/>
    </edge>
    <edge id=":319260646_4" function="internal">
        <lane id=":319260646_4_0" index="0" speed="13.89" length="6.82" shape="3293.15,2570.91 3293.24,2570.59 3294.44,2569.59 3296.46,2569.05 3299.30,2568.95"/>
    </edge>
    <edge id=":319260646_5" function="internal">
        <lane id=":319260646_5_0" index="0" speed="13.89" length="3.57" shape="3293.53,2571.00 3293.66,2570.80 3294.48,2570.38 3295.31,2570.78 3296.15,2572.01"/>
    </edge>
    <edge id=":319260646_2" function="internal">
        <lane id=":319260646_2_0" index="0" disallow="tram rail_urban rail rail_electric ship" speed="13.89" length="9.67" shape="3289.64,2569.06 3292.50,2568.89 3294.46,2568.82 3296.43,2568.84 3299.30,2568.95"/>
    </edge>
    <edge id=":319260646_3" function="internal">
        <lane id=":319260646_3_0" index="0" disallow="tram rail_urban rail rail_electric ship" speed="13.89" length="7.99" shape="3289.64,2569.06 3292.47,2569.09 3294.50,2569.59 3295.73,2570.57 3296.15,2572.01"/>
    </edge>
    <edge id=":3282676350_0" function="internal">
        <lane id=":3282676350_0_0" index="0" allow="bicycle" speed="5.56" length="4.84" width="1.00" shape="2931.31,1873.32 2930.43,1872.18 2929.81,1871.42 2929.16,1870.68 2928.17,1869.64"/>
    </edge>
    <edge id=":3282676350_1" function="internal">
        <lane id=":3282676350_1_0" index="0" allow="bicycle" speed="5.56" length="1.61" width="1.00" shape="2931.31,1873.32 2931.28,1872.82 2931.41,1872.54 2931.71,1872.49 2932.18,1872.65"/>
    </edge>
    <edge id=":3282676350_2" function="internal">
        <lane id=":3282676350_2_0" index="0" allow="bicycle" speed="5.56" length="4.95" width="1.00" shape="2928.97,1868.88 2929.98,1869.95 2930.65,1870.70 2931.29,1871.48 2932.18,1872.65"/>
    </edge>
    <edge id=":3282676350_3" function="internal">
        <lane id=":3282676350_3_0" index="0" allow="bicycle" speed="5.56" length="1.61" width="1.00" shape="2928.97,1868.88 2929.06,1869.37 2928.95,1869.66 2928.66,1869.75 2928.17,1869.64"/>
    </edge>
    <edge id=":3282676360_0" function="internal">
        <lane id=":3282676360_0_0" index="0" disallow="tram rail_urban rail rail_electric ship" speed="9.73" length="4.99" shape="2902.72,1842.67 2901.44,1841.56 2900.50,1841.31 2899.92,1841.91 2899.68,1843.37"/>
    </edge>
    <edge id=":3282676360_1" function="internal">
        <lane id=":3282676360_1_0" index="0" allow="bicycle" speed="5.56" length="13.65" width="1.00" shape="2902.72,1842.67 2900.25,1840.14 2897.87,1837.87 2895.40,1835.71 2892.63,1833.50"/>
    </edge>
    <edge id=":3282676360_2" function="internal">
        <lane id=":3282676360_2_0" index="0" disallow="tram rail_urban rail rail_electric ship" speed="9.73" length="13.14" shape="2902.72,1842.67 2900.31,1840.11 2898.33,1837.63 2896.94,1834.90 2896.32,1831.57"/>
    </edge>
    <edge id=":3282676360_3" function="internal">